
---------- Begin Simulation Statistics ----------
simSeconds                                   0.041798                       # Number of seconds simulated (Second)
simTicks                                  41798054000                       # Number of ticks simulated (Tick)
finalTick                                 41798054000                       # Number of ticks from beginning of simulation (restored from checkpoints and never reset) (Tick)
simFreq                                  1000000000000                       # The number of ticks per simulated second ((Tick/Second))
hostSeconds                                    122.88                       # Real time elapsed on the host (Second)
hostTickRate                                340148289                       # The number of ticks simulated per host second (ticks/s) ((Tick/Second))
hostMemory                                     665288                       # Number of bytes of host memory used (Byte)
simInsts                                      9996211                       # Number of instructions simulated (Count)
simOps                                       17794660                       # Number of ops (including micro ops) simulated (Count)
hostInstRate                                    81348                       # Simulator instruction rate (inst/s) ((Count/Second))
hostOpRate                                     144811                       # Simulator op (including micro ops) rate (op/s) ((Count/Second))
system.clk_domain.clock                          1000                       # Clock period in ticks (Tick)
system.cpu.numCycles                         41798055                       # Number of cpu cycles simulated (Cycle)
system.cpu.numWorkItemsStarted                      0                       # Number of work items this cpu started (Count)
system.cpu.numWorkItemsCompleted                    0                       # Number of work items this cpu completed (Count)
system.cpu.instsAdded                        17867740                       # Number of instructions added to the IQ (excludes non-spec) (Count)
system.cpu.nonSpecInstsAdded                       34                       # Number of non-speculative instructions added to the IQ (Count)
system.cpu.instsIssued                       17862362                       # Number of instructions issued (Count)
system.cpu.squashedInstsIssued                    137                       # Number of squashed instructions issued (Count)
system.cpu.squashedInstsExamined                73108                       # Number of squashed instructions iterated over during squash; mainly for profiling (Count)
system.cpu.squashedOperandsExamined             58446                       # Number of squashed operands that are examined and possibly removed from graph (Count)
system.cpu.squashedNonSpecRemoved                  22                       # Number of squashed non-spec instructions that were removed (Count)
system.cpu.numIssuedDist::samples            41779329                       # Number of insts issued each cycle (Count)
system.cpu.numIssuedDist::mean               0.427541                       # Number of insts issued each cycle (Count)
system.cpu.numIssuedDist::stdev              1.249536                       # Number of insts issued each cycle (Count)
system.cpu.numIssuedDist::underflows                0      0.00%      0.00% # Number of insts issued each cycle (Count)
system.cpu.numIssuedDist::0                  36345988     87.00%     87.00% # Number of insts issued each cycle (Count)
system.cpu.numIssuedDist::1                    795668      1.90%     88.90% # Number of insts issued each cycle (Count)
system.cpu.numIssuedDist::2                   1442146      3.45%     92.35% # Number of insts issued each cycle (Count)
system.cpu.numIssuedDist::3                    739142      1.77%     94.12% # Number of insts issued each cycle (Count)
system.cpu.numIssuedDist::4                    794123      1.90%     96.02% # Number of insts issued each cycle (Count)
system.cpu.numIssuedDist::5                   1245626      2.98%     99.00% # Number of insts issued each cycle (Count)
system.cpu.numIssuedDist::6                    365873      0.88%     99.88% # Number of insts issued each cycle (Count)
system.cpu.numIssuedDist::7                     40988      0.10%     99.98% # Number of insts issued each cycle (Count)
system.cpu.numIssuedDist::8                      9775      0.02%    100.00% # Number of insts issued each cycle (Count)
system.cpu.numIssuedDist::overflows                 0      0.00%    100.00% # Number of insts issued each cycle (Count)
system.cpu.numIssuedDist::min_value                 0                       # Number of insts issued each cycle (Count)
system.cpu.numIssuedDist::max_value                 8                       # Number of insts issued each cycle (Count)
system.cpu.numIssuedDist::total              41779329                       # Number of insts issued each cycle (Count)
system.cpu.statFuBusy::No_OpClass                   0      0.00%      0.00% # attempts to use FU when none available (Count)
system.cpu.statFuBusy::IntAlu                   29877     22.67%     22.67% # attempts to use FU when none available (Count)
system.cpu.statFuBusy::IntMult                      0      0.00%     22.67% # attempts to use FU when none available (Count)
system.cpu.statFuBusy::IntDiv                       0      0.00%     22.67% # attempts to use FU when none available (Count)
system.cpu.statFuBusy::FloatAdd                     0      0.00%     22.67% # attempts to use FU when none available (Count)
system.cpu.statFuBusy::FloatCmp                     0      0.00%     22.67% # attempts to use FU when none available (Count)
system.cpu.statFuBusy::FloatCvt                     0      0.00%     22.67% # attempts to use FU when none available (Count)
system.cpu.statFuBusy::FloatMult                    0      0.00%     22.67% # attempts to use FU when none available (Count)
system.cpu.statFuBusy::FloatMultAcc                 0      0.00%     22.67% # attempts to use FU when none available (Count)
system.cpu.statFuBusy::FloatDiv                     0      0.00%     22.67% # attempts to use FU when none available (Count)
system.cpu.statFuBusy::FloatMisc                    0      0.00%     22.67% # attempts to use FU when none available (Count)
system.cpu.statFuBusy::FloatSqrt                    0      0.00%     22.67% # attempts to use FU when none available (Count)
system.cpu.statFuBusy::SimdAdd                      0      0.00%     22.67% # attempts to use FU when none available (Count)
system.cpu.statFuBusy::SimdAddAcc                   0      0.00%     22.67% # attempts to use FU when none available (Count)
system.cpu.statFuBusy::SimdAlu                  28507     21.63%     44.31% # attempts to use FU when none available (Count)
system.cpu.statFuBusy::SimdCmp                      0      0.00%     44.31% # attempts to use FU when none available (Count)
system.cpu.statFuBusy::SimdCvt                  39877     30.26%     74.57% # attempts to use FU when none available (Count)
system.cpu.statFuBusy::SimdMisc                 33463     25.39%     99.96% # attempts to use FU when none available (Count)
system.cpu.statFuBusy::SimdMult                     0      0.00%     99.96% # attempts to use FU when none available (Count)
system.cpu.statFuBusy::SimdMultAcc                  0      0.00%     99.96% # attempts to use FU when none available (Count)
system.cpu.statFuBusy::SimdShift                    0      0.00%     99.96% # attempts to use FU when none available (Count)
system.cpu.statFuBusy::SimdShiftAcc                 0      0.00%     99.96% # attempts to use FU when none available (Count)
system.cpu.statFuBusy::SimdDiv                      0      0.00%     99.96% # attempts to use FU when none available (Count)
system.cpu.statFuBusy::SimdSqrt                     0      0.00%     99.96% # attempts to use FU when none available (Count)
system.cpu.statFuBusy::SimdFloatAdd                 0      0.00%     99.96% # attempts to use FU when none available (Count)
system.cpu.statFuBusy::SimdFloatAlu                 0      0.00%     99.96% # attempts to use FU when none available (Count)
system.cpu.statFuBusy::SimdFloatCmp                 0      0.00%     99.96% # attempts to use FU when none available (Count)
system.cpu.statFuBusy::SimdFloatCvt                 0      0.00%     99.96% # attempts to use FU when none available (Count)
system.cpu.statFuBusy::SimdFloatDiv                 0      0.00%     99.96% # attempts to use FU when none available (Count)
system.cpu.statFuBusy::SimdFloatMisc                0      0.00%     99.96% # attempts to use FU when none available (Count)
system.cpu.statFuBusy::SimdFloatMult                0      0.00%     99.96% # attempts to use FU when none available (Count)
system.cpu.statFuBusy::SimdFloatMultAcc             0      0.00%     99.96% # attempts to use FU when none available (Count)
system.cpu.statFuBusy::SimdFloatSqrt                0      0.00%     99.96% # attempts to use FU when none available (Count)
system.cpu.statFuBusy::SimdReduceAdd                0      0.00%     99.96% # attempts to use FU when none available (Count)
system.cpu.statFuBusy::SimdReduceAlu                0      0.00%     99.96% # attempts to use FU when none available (Count)
system.cpu.statFuBusy::SimdReduceCmp                0      0.00%     99.96% # attempts to use FU when none available (Count)
system.cpu.statFuBusy::SimdFloatReduceAdd            0      0.00%     99.96% # attempts to use FU when none available (Count)
system.cpu.statFuBusy::SimdFloatReduceCmp            0      0.00%     99.96% # attempts to use FU when none available (Count)
system.cpu.statFuBusy::SimdAes                      0      0.00%     99.96% # attempts to use FU when none available (Count)
system.cpu.statFuBusy::SimdAesMix                   0      0.00%     99.96% # attempts to use FU when none available (Count)
system.cpu.statFuBusy::SimdSha1Hash                 0      0.00%     99.96% # attempts to use FU when none available (Count)
system.cpu.statFuBusy::SimdSha1Hash2                0      0.00%     99.96% # attempts to use FU when none available (Count)
system.cpu.statFuBusy::SimdSha256Hash               0      0.00%     99.96% # attempts to use FU when none available (Count)
system.cpu.statFuBusy::SimdSha256Hash2              0      0.00%     99.96% # attempts to use FU when none available (Count)
system.cpu.statFuBusy::SimdShaSigma2                0      0.00%     99.96% # attempts to use FU when none available (Count)
system.cpu.statFuBusy::SimdShaSigma3                0      0.00%     99.96% # attempts to use FU when none available (Count)
system.cpu.statFuBusy::SimdPredAlu                  0      0.00%     99.96% # attempts to use FU when none available (Count)
system.cpu.statFuBusy::MemRead                     29      0.02%     99.98% # attempts to use FU when none available (Count)
system.cpu.statFuBusy::MemWrite                    11      0.01%     99.99% # attempts to use FU when none available (Count)
system.cpu.statFuBusy::FloatMemRead                 3      0.00%     99.99% # attempts to use FU when none available (Count)
system.cpu.statFuBusy::FloatMemWrite               10      0.01%    100.00% # attempts to use FU when none available (Count)
system.cpu.statFuBusy::IprAccess                    0      0.00%    100.00% # attempts to use FU when none available (Count)
system.cpu.statFuBusy::InstPrefetch                 0      0.00%    100.00% # attempts to use FU when none available (Count)
system.cpu.statIssuedInstType_0::No_OpClass          696      0.00%      0.00% # Number of instructions issued per FU type, per thread (Count)
system.cpu.statIssuedInstType_0::IntAlu      14022957     78.51%     78.51% # Number of instructions issued per FU type, per thread (Count)
system.cpu.statIssuedInstType_0::IntMult         1340      0.01%     78.52% # Number of instructions issued per FU type, per thread (Count)
system.cpu.statIssuedInstType_0::IntDiv            21      0.00%     78.52% # Number of instructions issued per FU type, per thread (Count)
system.cpu.statIssuedInstType_0::FloatAdd          145      0.00%     78.52% # Number of instructions issued per FU type, per thread (Count)
system.cpu.statIssuedInstType_0::FloatCmp            0      0.00%     78.52% # Number of instructions issued per FU type, per thread (Count)
system.cpu.statIssuedInstType_0::FloatCvt            0      0.00%     78.52% # Number of instructions issued per FU type, per thread (Count)
system.cpu.statIssuedInstType_0::FloatMult            0      0.00%     78.52% # Number of instructions issued per FU type, per thread (Count)
system.cpu.statIssuedInstType_0::FloatMultAcc            0      0.00%     78.52% # Number of instructions issued per FU type, per thread (Count)
system.cpu.statIssuedInstType_0::FloatDiv            0      0.00%     78.52% # Number of instructions issued per FU type, per thread (Count)
system.cpu.statIssuedInstType_0::FloatMisc            0      0.00%     78.52% # Number of instructions issued per FU type, per thread (Count)
system.cpu.statIssuedInstType_0::FloatSqrt            0      0.00%     78.52% # Number of instructions issued per FU type, per thread (Count)
system.cpu.statIssuedInstType_0::SimdAdd       499996      2.80%     81.32% # Number of instructions issued per FU type, per thread (Count)
system.cpu.statIssuedInstType_0::SimdAddAcc            0      0.00%     81.32% # Number of instructions issued per FU type, per thread (Count)
system.cpu.statIssuedInstType_0::SimdAlu       125172      0.70%     82.02% # Number of instructions issued per FU type, per thread (Count)
system.cpu.statIssuedInstType_0::SimdCmp            0      0.00%     82.02% # Number of instructions issued per FU type, per thread (Count)
system.cpu.statIssuedInstType_0::SimdCvt       125046      0.70%     82.72% # Number of instructions issued per FU type, per thread (Count)
system.cpu.statIssuedInstType_0::SimdMisc       750207      4.20%     86.92% # Number of instructions issued per FU type, per thread (Count)
system.cpu.statIssuedInstType_0::SimdMult            0      0.00%     86.92% # Number of instructions issued per FU type, per thread (Count)
system.cpu.statIssuedInstType_0::SimdMultAcc            0      0.00%     86.92% # Number of instructions issued per FU type, per thread (Count)
system.cpu.statIssuedInstType_0::SimdShift           10      0.00%     86.92% # Number of instructions issued per FU type, per thread (Count)
system.cpu.statIssuedInstType_0::SimdShiftAcc            0      0.00%     86.92% # Number of instructions issued per FU type, per thread (Count)
system.cpu.statIssuedInstType_0::SimdDiv            0      0.00%     86.92% # Number of instructions issued per FU type, per thread (Count)
system.cpu.statIssuedInstType_0::SimdSqrt            0      0.00%     86.92% # Number of instructions issued per FU type, per thread (Count)
system.cpu.statIssuedInstType_0::SimdFloatAdd            0      0.00%     86.92% # Number of instructions issued per FU type, per thread (Count)
system.cpu.statIssuedInstType_0::SimdFloatAlu            0      0.00%     86.92% # Number of instructions issued per FU type, per thread (Count)
system.cpu.statIssuedInstType_0::SimdFloatCmp            0      0.00%     86.92% # Number of instructions issued per FU type, per thread (Count)
system.cpu.statIssuedInstType_0::SimdFloatCvt            0      0.00%     86.92% # Number of instructions issued per FU type, per thread (Count)
system.cpu.statIssuedInstType_0::SimdFloatDiv            0      0.00%     86.92% # Number of instructions issued per FU type, per thread (Count)
system.cpu.statIssuedInstType_0::SimdFloatMisc            0      0.00%     86.92% # Number of instructions issued per FU type, per thread (Count)
system.cpu.statIssuedInstType_0::SimdFloatMult            0      0.00%     86.92% # Number of instructions issued per FU type, per thread (Count)
system.cpu.statIssuedInstType_0::SimdFloatMultAcc            0      0.00%     86.92% # Number of instructions issued per FU type, per thread (Count)
system.cpu.statIssuedInstType_0::SimdFloatSqrt            0      0.00%     86.92% # Number of instructions issued per FU type, per thread (Count)
system.cpu.statIssuedInstType_0::SimdReduceAdd            0      0.00%     86.92% # Number of instructions issued per FU type, per thread (Count)
system.cpu.statIssuedInstType_0::SimdReduceAlu            0      0.00%     86.92% # Number of instructions issued per FU type, per thread (Count)
system.cpu.statIssuedInstType_0::SimdReduceCmp            0      0.00%     86.92% # Number of instructions issued per FU type, per thread (Count)
system.cpu.statIssuedInstType_0::SimdFloatReduceAdd            0      0.00%     86.92% # Number of instructions issued per FU type, per thread (Count)
system.cpu.statIssuedInstType_0::SimdFloatReduceCmp            0      0.00%     86.92% # Number of instructions issued per FU type, per thread (Count)
system.cpu.statIssuedInstType_0::SimdAes            0      0.00%     86.92% # Number of instructions issued per FU type, per thread (Count)
system.cpu.statIssuedInstType_0::SimdAesMix            0      0.00%     86.92% # Number of instructions issued per FU type, per thread (Count)
system.cpu.statIssuedInstType_0::SimdSha1Hash            0      0.00%     86.92% # Number of instructions issued per FU type, per thread (Count)
system.cpu.statIssuedInstType_0::SimdSha1Hash2            0      0.00%     86.92% # Number of instructions issued per FU type, per thread (Count)
system.cpu.statIssuedInstType_0::SimdSha256Hash            0      0.00%     86.92% # Number of instructions issued per FU type, per thread (Count)
system.cpu.statIssuedInstType_0::SimdSha256Hash2            0      0.00%     86.92% # Number of instructions issued per FU type, per thread (Count)
system.cpu.statIssuedInstType_0::SimdShaSigma2            0      0.00%     86.92% # Number of instructions issued per FU type, per thread (Count)
system.cpu.statIssuedInstType_0::SimdShaSigma3            0      0.00%     86.92% # Number of instructions issued per FU type, per thread (Count)
system.cpu.statIssuedInstType_0::SimdPredAlu            0      0.00%     86.92% # Number of instructions issued per FU type, per thread (Count)
system.cpu.statIssuedInstType_0::MemRead         4415      0.02%     86.94% # Number of instructions issued per FU type, per thread (Count)
system.cpu.statIssuedInstType_0::MemWrite      2206741     12.35%     99.30% # Number of instructions issued per FU type, per thread (Count)
system.cpu.statIssuedInstType_0::FloatMemRead       125092      0.70%    100.00% # Number of instructions issued per FU type, per thread (Count)
system.cpu.statIssuedInstType_0::FloatMemWrite          524      0.00%    100.00% # Number of instructions issued per FU type, per thread (Count)
system.cpu.statIssuedInstType_0::IprAccess            0      0.00%    100.00% # Number of instructions issued per FU type, per thread (Count)
system.cpu.statIssuedInstType_0::InstPrefetch            0      0.00%    100.00% # Number of instructions issued per FU type, per thread (Count)
system.cpu.statIssuedInstType_0::total       17862362                       # Number of instructions issued per FU type, per thread (Count)
system.cpu.issueRate                         0.427349                       # Inst issue rate ((Count/Cycle))
system.cpu.fuBusy                              131777                       # FU busy when requested (Count)
system.cpu.fuBusyRate                        0.007377                       # FU busy rate (busy events/executed inst) ((Count/Count))
system.cpu.intInstQueueReads                 73531443                       # Number of integer instruction queue reads (Count)
system.cpu.intInstQueueWrites                15939270                       # Number of integer instruction queue writes (Count)
system.cpu.intInstQueueWakeupAccesses        15852129                       # Number of integer instruction queue wakeup accesses (Count)
system.cpu.fpInstQueueReads                   4104524                       # Number of floating instruction queue reads (Count)
system.cpu.fpInstQueueWrites                  2001622                       # Number of floating instruction queue writes (Count)
system.cpu.fpInstQueueWakeupAccesses          2001289                       # Number of floating instruction queue wakeup accesses (Count)
system.cpu.vecInstQueueReads                        0                       # Number of vector instruction queue reads (Count)
system.cpu.vecInstQueueWrites                       0                       # Number of vector instruction queue writes (Count)
system.cpu.vecInstQueueWakeupAccesses               0                       # Number of vector instruction queue wakeup accesses (Count)
system.cpu.intAluAccesses                    15890253                       # Number of integer alu accesses (Count)
system.cpu.fpAluAccesses                      2103190                       # Number of floating point alu accesses (Count)
system.cpu.vecAluAccesses                           0                       # Number of vector alu accesses (Count)
system.cpu.numInsts                          17861060                       # Number of executed instructions (Count)
system.cpu.numLoadInsts                        129255                       # Number of load instructions executed (Count)
system.cpu.numSquashedInsts                      1302                       # Number of squashed instructions skipped in execute (Count)
system.cpu.numSwp                                   0                       # Number of swp insts executed (Count)
system.cpu.numNop                                   0                       # Number of nop insts executed (Count)
system.cpu.numRefs                            2336418                       # Number of memory reference insts executed (Count)
system.cpu.numBranches                        2272525                       # Number of branches executed (Count)
system.cpu.numStoreInsts                      2207163                       # Number of stores executed (Count)
system.cpu.numRate                           0.427318                       # Inst execution rate ((Count/Cycle))
system.cpu.timesIdled                             296                       # Number of times that the entire CPU went into an idle state and unscheduled itself (Count)
system.cpu.idleCycles                           18726                       # Total number of cycles that the CPU has spent unscheduled due to idling (Cycle)
system.cpu.committedInsts                     9996211                       # Number of Instructions Simulated (Count)
system.cpu.committedOps                      17794660                       # Number of Ops (including micro ops) Simulated (Count)
system.cpu.cpi                               4.181390                       # CPI: Cycles Per Instruction ((Cycle/Count))
system.cpu.totalCpi                          4.181390                       # CPI: Total CPI of All Threads ((Cycle/Count))
system.cpu.ipc                               0.239155                       # IPC: Instructions Per Cycle ((Count/Cycle))
system.cpu.totalIpc                          0.239155                       # IPC: Total IPC of All Threads ((Count/Cycle))
system.cpu.intRegfileReads                   22615220                       # Number of integer regfile reads (Count)
system.cpu.intRegfileWrites                   9107368                       # Number of integer regfile writes (Count)
system.cpu.fpRegfileReads                     4376527                       # Number of floating regfile reads (Count)
system.cpu.fpRegfileWrites                    2000727                       # Number of floating regfile writes (Count)
system.cpu.ccRegfileReads                    11361606                       # number of cc regfile reads (Count)
system.cpu.ccRegfileWrites                    9087798                       # number of cc regfile writes (Count)
system.cpu.miscRegfileReads                   6883087                       # number of misc regfile reads (Count)
system.cpu.MemDepUnit__0.insertedLoads         129731                       # Number of loads inserted to the mem dependence unit. (Count)
system.cpu.MemDepUnit__0.insertedStores       2207670                       # Number of stores inserted to the mem dependence unit. (Count)
system.cpu.MemDepUnit__0.conflictingLoads           34                       # Number of conflicting loads. (Count)
system.cpu.MemDepUnit__0.conflictingStores           13                       # Number of conflicting stores. (Count)
system.cpu.MemDepUnit__1.insertedLoads              0                       # Number of loads inserted to the mem dependence unit. (Count)
system.cpu.MemDepUnit__1.insertedStores             0                       # Number of stores inserted to the mem dependence unit. (Count)
system.cpu.MemDepUnit__1.conflictingLoads            0                       # Number of conflicting loads. (Count)
system.cpu.MemDepUnit__1.conflictingStores            0                       # Number of conflicting stores. (Count)
system.cpu.MemDepUnit__2.insertedLoads              0                       # Number of loads inserted to the mem dependence unit. (Count)
system.cpu.MemDepUnit__2.insertedStores             0                       # Number of stores inserted to the mem dependence unit. (Count)
system.cpu.MemDepUnit__2.conflictingLoads            0                       # Number of conflicting loads. (Count)
system.cpu.MemDepUnit__2.conflictingStores            0                       # Number of conflicting stores. (Count)
system.cpu.MemDepUnit__3.insertedLoads              0                       # Number of loads inserted to the mem dependence unit. (Count)
system.cpu.MemDepUnit__3.insertedStores             0                       # Number of stores inserted to the mem dependence unit. (Count)
system.cpu.MemDepUnit__3.conflictingLoads            0                       # Number of conflicting loads. (Count)
system.cpu.MemDepUnit__3.conflictingStores            0                       # Number of conflicting stores. (Count)
system.cpu.branchPred.lookups                 2279483                       # Number of BP lookups (Count)
system.cpu.branchPred.condPredicted           2278204                       # Number of conditional branches predicted (Count)
system.cpu.branchPred.condIncorrect              1080                       # Number of conditional branches incorrect (Count)
system.cpu.branchPred.BTBLookups              2275094                       # Number of BTB lookups (Count)
system.cpu.branchPred.BTBUpdates                  634                       # Number of BTB updates (Count)
system.cpu.branchPred.BTBHits                 2274296                       # Number of BTB hits (Count)
system.cpu.branchPred.BTBHitRatio            0.999649                       # BTB Hit Ratio (Ratio)
system.cpu.branchPred.RASUsed                     271                       # Number of times the RAS was used to get a target. (Count)
system.cpu.branchPred.RASIncorrect                  0                       # Number of incorrect RAS predictions. (Count)
system.cpu.branchPred.indirectLookups             367                       # Number of indirect predictor lookups. (Count)
system.cpu.branchPred.indirectHits                 16                       # Number of indirect target hits. (Count)
system.cpu.branchPred.indirectMisses              351                       # Number of indirect misses. (Count)
system.cpu.branchPred.indirectMispredicted          109                       # Number of mispredicted indirect branches. (Count)
system.cpu.commit.commitSquashedInsts           73252                       # The number of squashed insts skipped by commit (Count)
system.cpu.commit.commitNonSpecStalls              12                       # The number of times commit has been forced to stall to communicate backwards (Count)
system.cpu.commit.branchMispredicts               957                       # The number of times a branch was mispredicted (Count)
system.cpu.commit.numCommittedDist::samples     41769587                       # Number of insts commited each cycle (Count)
system.cpu.commit.numCommittedDist::mean     0.426020                       # Number of insts commited each cycle (Count)
system.cpu.commit.numCommittedDist::stdev     1.274139                       # Number of insts commited each cycle (Count)
system.cpu.commit.numCommittedDist::underflows            0      0.00%      0.00% # Number of insts commited each cycle (Count)
system.cpu.commit.numCommittedDist::0        36428334     87.21%     87.21% # Number of insts commited each cycle (Count)
system.cpu.commit.numCommittedDist::1          230876      0.55%     87.77% # Number of insts commited each cycle (Count)
system.cpu.commit.numCommittedDist::2         1936431      4.64%     92.40% # Number of insts commited each cycle (Count)
system.cpu.commit.numCommittedDist::3         1332836      3.19%     95.59% # Number of insts commited each cycle (Count)
system.cpu.commit.numCommittedDist::4          883377      2.11%     97.71% # Number of insts commited each cycle (Count)
system.cpu.commit.numCommittedDist::5          414383      0.99%     98.70% # Number of insts commited each cycle (Count)
system.cpu.commit.numCommittedDist::6           23953      0.06%     98.76% # Number of insts commited each cycle (Count)
system.cpu.commit.numCommittedDist::7          211903      0.51%     99.26% # Number of insts commited each cycle (Count)
system.cpu.commit.numCommittedDist::8          307494      0.74%    100.00% # Number of insts commited each cycle (Count)
system.cpu.commit.numCommittedDist::overflows            0      0.00%    100.00% # Number of insts commited each cycle (Count)
system.cpu.commit.numCommittedDist::min_value            0                       # Number of insts commited each cycle (Count)
system.cpu.commit.numCommittedDist::max_value            8                       # Number of insts commited each cycle (Count)
system.cpu.commit.numCommittedDist::total     41769587                       # Number of insts commited each cycle (Count)
system.cpu.commit.instsCommitted              9996211                       # Number of instructions committed (Count)
system.cpu.commit.opsCommitted               17794660                       # Number of ops (including micro ops) committed (Count)
system.cpu.commit.memRefs                     2327078                       # Number of memory references committed (Count)
system.cpu.commit.loads                        127565                       # Number of loads committed (Count)
system.cpu.commit.amos                              0                       # Number of atomic instructions committed (Count)
system.cpu.commit.membars                           8                       # Number of memory barriers committed (Count)
system.cpu.commit.branches                    2264261                       # Number of branches committed (Count)
system.cpu.commit.vectorInstructions                0                       # Number of committed Vector instructions. (Count)
system.cpu.commit.floating                    2001118                       # Number of committed floating point instructions. (Count)
system.cpu.commit.integer                    15918911                       # Number of committed integer instructions. (Count)
system.cpu.commit.functionCalls                   151                       # Number of function calls committed. (Count)
system.cpu.commit.committedInstType_0::No_OpClass          192      0.00%      0.00% # Class of committed instruction (Count)
system.cpu.commit.committedInstType_0::IntAlu     13965880     78.48%     78.48% # Class of committed instruction (Count)
system.cpu.commit.committedInstType_0::IntMult         1004      0.01%     78.49% # Class of committed instruction (Count)
system.cpu.commit.committedInstType_0::IntDiv           21      0.00%     78.49% # Class of committed instruction (Count)
system.cpu.commit.committedInstType_0::FloatAdd          135      0.00%     78.49% # Class of committed instruction (Count)
system.cpu.commit.committedInstType_0::FloatCmp            0      0.00%     78.49% # Class of committed instruction (Count)
system.cpu.commit.committedInstType_0::FloatCvt            0      0.00%     78.49% # Class of committed instruction (Count)
system.cpu.commit.committedInstType_0::FloatMult            0      0.00%     78.49% # Class of committed instruction (Count)
system.cpu.commit.committedInstType_0::FloatMultAcc            0      0.00%     78.49% # Class of committed instruction (Count)
system.cpu.commit.committedInstType_0::FloatDiv            0      0.00%     78.49% # Class of committed instruction (Count)
system.cpu.commit.committedInstType_0::FloatMisc            0      0.00%     78.49% # Class of committed instruction (Count)
system.cpu.commit.committedInstType_0::FloatSqrt            0      0.00%     78.49% # Class of committed instruction (Count)
system.cpu.commit.committedInstType_0::SimdAdd       499996      2.81%     81.30% # Class of committed instruction (Count)
system.cpu.commit.committedInstType_0::SimdAddAcc            0      0.00%     81.30% # Class of committed instruction (Count)
system.cpu.commit.committedInstType_0::SimdAlu       125100      0.70%     82.00% # Class of committed instruction (Count)
system.cpu.commit.committedInstType_0::SimdCmp            0      0.00%     82.00% # Class of committed instruction (Count)
system.cpu.commit.committedInstType_0::SimdCvt       125044      0.70%     82.71% # Class of committed instruction (Count)
system.cpu.commit.committedInstType_0::SimdMisc       750204      4.22%     86.92% # Class of committed instruction (Count)
system.cpu.commit.committedInstType_0::SimdMult            0      0.00%     86.92% # Class of committed instruction (Count)
system.cpu.commit.committedInstType_0::SimdMultAcc            0      0.00%     86.92% # Class of committed instruction (Count)
system.cpu.commit.committedInstType_0::SimdShift            6      0.00%     86.92% # Class of committed instruction (Count)
system.cpu.commit.committedInstType_0::SimdShiftAcc            0      0.00%     86.92% # Class of committed instruction (Count)
system.cpu.commit.committedInstType_0::SimdDiv            0      0.00%     86.92% # Class of committed instruction (Count)
system.cpu.commit.committedInstType_0::SimdSqrt            0      0.00%     86.92% # Class of committed instruction (Count)
system.cpu.commit.committedInstType_0::SimdFloatAdd            0      0.00%     86.92% # Class of committed instruction (Count)
system.cpu.commit.committedInstType_0::SimdFloatAlu            0      0.00%     86.92% # Class of committed instruction (Count)
system.cpu.commit.committedInstType_0::SimdFloatCmp            0      0.00%     86.92% # Class of committed instruction (Count)
system.cpu.commit.committedInstType_0::SimdFloatCvt            0      0.00%     86.92% # Class of committed instruction (Count)
system.cpu.commit.committedInstType_0::SimdFloatDiv            0      0.00%     86.92% # Class of committed instruction (Count)
system.cpu.commit.committedInstType_0::SimdFloatMisc            0      0.00%     86.92% # Class of committed instruction (Count)
system.cpu.commit.committedInstType_0::SimdFloatMult            0      0.00%     86.92% # Class of committed instruction (Count)
system.cpu.commit.committedInstType_0::SimdFloatMultAcc            0      0.00%     86.92% # Class of committed instruction (Count)
system.cpu.commit.committedInstType_0::SimdFloatSqrt            0      0.00%     86.92% # Class of committed instruction (Count)
system.cpu.commit.committedInstType_0::SimdReduceAdd            0      0.00%     86.92% # Class of committed instruction (Count)
system.cpu.commit.committedInstType_0::SimdReduceAlu            0      0.00%     86.92% # Class of committed instruction (Count)
system.cpu.commit.committedInstType_0::SimdReduceCmp            0      0.00%     86.92% # Class of committed instruction (Count)
system.cpu.commit.committedInstType_0::SimdFloatReduceAdd            0      0.00%     86.92% # Class of committed instruction (Count)
system.cpu.commit.committedInstType_0::SimdFloatReduceCmp            0      0.00%     86.92% # Class of committed instruction (Count)
system.cpu.commit.committedInstType_0::SimdAes            0      0.00%     86.92% # Class of committed instruction (Count)
system.cpu.commit.committedInstType_0::SimdAesMix            0      0.00%     86.92% # Class of committed instruction (Count)
system.cpu.commit.committedInstType_0::SimdSha1Hash            0      0.00%     86.92% # Class of committed instruction (Count)
system.cpu.commit.committedInstType_0::SimdSha1Hash2            0      0.00%     86.92% # Class of committed instruction (Count)
system.cpu.commit.committedInstType_0::SimdSha256Hash            0      0.00%     86.92% # Class of committed instruction (Count)
system.cpu.commit.committedInstType_0::SimdSha256Hash2            0      0.00%     86.92% # Class of committed instruction (Count)
system.cpu.commit.committedInstType_0::SimdShaSigma2            0      0.00%     86.92% # Class of committed instruction (Count)
system.cpu.commit.committedInstType_0::SimdShaSigma3            0      0.00%     86.92% # Class of committed instruction (Count)
system.cpu.commit.committedInstType_0::SimdPredAlu            0      0.00%     86.92% # Class of committed instruction (Count)
system.cpu.commit.committedInstType_0::MemRead         2523      0.01%     86.94% # Class of committed instruction (Count)
system.cpu.commit.committedInstType_0::MemWrite      2199059     12.36%     99.29% # Class of committed instruction (Count)
system.cpu.commit.committedInstType_0::FloatMemRead       125042      0.70%    100.00% # Class of committed instruction (Count)
system.cpu.commit.committedInstType_0::FloatMemWrite          454      0.00%    100.00% # Class of committed instruction (Count)
system.cpu.commit.committedInstType_0::IprAccess            0      0.00%    100.00% # Class of committed instruction (Count)
system.cpu.commit.committedInstType_0::InstPrefetch            0      0.00%    100.00% # Class of committed instruction (Count)
system.cpu.commit.committedInstType_0::total     17794660                       # Class of committed instruction (Count)
system.cpu.commit.commitEligibleSamples        307494                       # number cycles where commit BW limit reached (Cycle)
system.cpu.dcache.demandHits::cpu.data        1837224                       # number of demand (read+write) hits (Count)
system.cpu.dcache.demandHits::total           1837224                       # number of demand (read+write) hits (Count)
system.cpu.dcache.overallHits::cpu.data       1837224                       # number of overall hits (Count)
system.cpu.dcache.overallHits::total          1837224                       # number of overall hits (Count)
system.cpu.dcache.demandMisses::cpu.data       506885                       # number of demand (read+write) misses (Count)
system.cpu.dcache.demandMisses::total          506885                       # number of demand (read+write) misses (Count)
system.cpu.dcache.overallMisses::cpu.data       506885                       # number of overall misses (Count)
system.cpu.dcache.overallMisses::total         506885                       # number of overall misses (Count)
system.cpu.dcache.demandMissLatency::cpu.data  38960298999                       # number of demand (read+write) miss ticks (Tick)
system.cpu.dcache.demandMissLatency::total  38960298999                       # number of demand (read+write) miss ticks (Tick)
system.cpu.dcache.overallMissLatency::cpu.data  38960298999                       # number of overall miss ticks (Tick)
system.cpu.dcache.overallMissLatency::total  38960298999                       # number of overall miss ticks (Tick)
system.cpu.dcache.demandAccesses::cpu.data      2344109                       # number of demand (read+write) accesses (Count)
system.cpu.dcache.demandAccesses::total       2344109                       # number of demand (read+write) accesses (Count)
system.cpu.dcache.overallAccesses::cpu.data      2344109                       # number of overall (read+write) accesses (Count)
system.cpu.dcache.overallAccesses::total      2344109                       # number of overall (read+write) accesses (Count)
system.cpu.dcache.demandMissRate::cpu.data     0.216238                       # miss rate for demand accesses (Ratio)
system.cpu.dcache.demandMissRate::total      0.216238                       # miss rate for demand accesses (Ratio)
system.cpu.dcache.overallMissRate::cpu.data     0.216238                       # miss rate for overall accesses (Ratio)
system.cpu.dcache.overallMissRate::total     0.216238                       # miss rate for overall accesses (Ratio)
system.cpu.dcache.demandAvgMissLatency::cpu.data 76862.205429                       # average overall miss latency in ticks ((Tick/Count))
system.cpu.dcache.demandAvgMissLatency::total 76862.205429                       # average overall miss latency in ticks ((Tick/Count))
system.cpu.dcache.overallAvgMissLatency::cpu.data 76862.205429                       # average overall miss latency ((Tick/Count))
system.cpu.dcache.overallAvgMissLatency::total 76862.205429                       # average overall miss latency ((Tick/Count))
system.cpu.dcache.blockedCycles::no_mshrs          954                       # number of cycles access was blocked (Cycle)
system.cpu.dcache.blockedCycles::no_targets            0                       # number of cycles access was blocked (Cycle)
system.cpu.dcache.blockedCauses::no_mshrs           45                       # number of times access was blocked (Count)
system.cpu.dcache.blockedCauses::no_targets            0                       # number of times access was blocked (Count)
system.cpu.dcache.avgBlocked::no_mshrs      21.200000                       # average number of cycles each access was blocked ((Cycle/Count))
system.cpu.dcache.avgBlocked::no_targets          nan                       # average number of cycles each access was blocked ((Cycle/Count))
system.cpu.dcache.writebacks::writebacks       768664                       # number of writebacks (Count)
system.cpu.dcache.writebacks::total            768664                       # number of writebacks (Count)
system.cpu.dcache.demandMshrHits::cpu.data       120479                       # number of demand (read+write) MSHR hits (Count)
system.cpu.dcache.demandMshrHits::total        120479                       # number of demand (read+write) MSHR hits (Count)
system.cpu.dcache.overallMshrHits::cpu.data       120479                       # number of overall MSHR hits (Count)
system.cpu.dcache.overallMshrHits::total       120479                       # number of overall MSHR hits (Count)
system.cpu.dcache.demandMshrMisses::cpu.data       386406                       # number of demand (read+write) MSHR misses (Count)
system.cpu.dcache.demandMshrMisses::total       386406                       # number of demand (read+write) MSHR misses (Count)
system.cpu.dcache.overallMshrMisses::cpu.data       386406                       # number of overall MSHR misses (Count)
system.cpu.dcache.overallMshrMisses::cpu.dcache.prefetcher       539995                       # number of overall MSHR misses (Count)
system.cpu.dcache.overallMshrMisses::total       926401                       # number of overall MSHR misses (Count)
system.cpu.dcache.demandMshrMissLatency::cpu.data  31300919999                       # number of demand (read+write) MSHR miss ticks (Tick)
system.cpu.dcache.demandMshrMissLatency::total  31300919999                       # number of demand (read+write) MSHR miss ticks (Tick)
system.cpu.dcache.overallMshrMissLatency::cpu.data  31300919999                       # number of overall MSHR miss ticks (Tick)
system.cpu.dcache.overallMshrMissLatency::cpu.dcache.prefetcher  39800389196                       # number of overall MSHR miss ticks (Tick)
system.cpu.dcache.overallMshrMissLatency::total  71101309195                       # number of overall MSHR miss ticks (Tick)
system.cpu.dcache.demandMshrMissRate::cpu.data     0.164841                       # mshr miss ratio for demand accesses (Ratio)
system.cpu.dcache.demandMshrMissRate::total     0.164841                       # mshr miss ratio for demand accesses (Ratio)
system.cpu.dcache.overallMshrMissRate::cpu.data     0.164841                       # mshr miss ratio for overall accesses (Ratio)
system.cpu.dcache.overallMshrMissRate::cpu.dcache.prefetcher          inf                       # mshr miss ratio for overall accesses (Ratio)
system.cpu.dcache.overallMshrMissRate::total     0.395204                       # mshr miss ratio for overall accesses (Ratio)
system.cpu.dcache.demandAvgMshrMissLatency::cpu.data 81005.263891                       # average overall mshr miss latency ((Tick/Count))
system.cpu.dcache.demandAvgMshrMissLatency::total 81005.263891                       # average overall mshr miss latency ((Tick/Count))
system.cpu.dcache.overallAvgMshrMissLatency::cpu.data 81005.263891                       # average overall mshr miss latency ((Tick/Count))
system.cpu.dcache.overallAvgMshrMissLatency::cpu.dcache.prefetcher 73705.106892                       # average overall mshr miss latency ((Tick/Count))
system.cpu.dcache.overallAvgMshrMissLatency::total 76750.035023                       # average overall mshr miss latency ((Tick/Count))
system.cpu.dcache.replacements                 925377                       # number of replacements (Count)
system.cpu.dcache.HardPFReq.mshrMisses::cpu.dcache.prefetcher       539995                       # number of HardPFReq MSHR misses (Count)
system.cpu.dcache.HardPFReq.mshrMisses::total       539995                       # number of HardPFReq MSHR misses (Count)
system.cpu.dcache.HardPFReq.mshrMissLatency::cpu.dcache.prefetcher  39800389196                       # number of HardPFReq MSHR miss ticks (Tick)
system.cpu.dcache.HardPFReq.mshrMissLatency::total  39800389196                       # number of HardPFReq MSHR miss ticks (Tick)
system.cpu.dcache.HardPFReq.mshrMissRate::cpu.dcache.prefetcher          inf                       # mshr miss rate for HardPFReq accesses (Ratio)
system.cpu.dcache.HardPFReq.mshrMissRate::total          inf                       # mshr miss rate for HardPFReq accesses (Ratio)
system.cpu.dcache.HardPFReq.avgMshrMissLatency::cpu.dcache.prefetcher 73705.106892                       # average HardPFReq mshr miss latency ((Tick/Count))
system.cpu.dcache.HardPFReq.avgMshrMissLatency::total 73705.106892                       # average HardPFReq mshr miss latency ((Tick/Count))
system.cpu.dcache.LockedRMWReadReq.hits::cpu.data            4                       # number of LockedRMWReadReq hits (Count)
system.cpu.dcache.LockedRMWReadReq.hits::total            4                       # number of LockedRMWReadReq hits (Count)
system.cpu.dcache.LockedRMWReadReq.accesses::cpu.data            4                       # number of LockedRMWReadReq accesses(hits+misses) (Count)
system.cpu.dcache.LockedRMWReadReq.accesses::total            4                       # number of LockedRMWReadReq accesses(hits+misses) (Count)
system.cpu.dcache.LockedRMWReadReq.mshrMissLatency::cpu.data        46000                       # number of LockedRMWReadReq MSHR miss ticks (Tick)
system.cpu.dcache.LockedRMWReadReq.mshrMissLatency::total        46000                       # number of LockedRMWReadReq MSHR miss ticks (Tick)
system.cpu.dcache.LockedRMWReadReq.avgMshrMissLatency::cpu.data          inf                       # average LockedRMWReadReq mshr miss latency ((Tick/Count))
system.cpu.dcache.LockedRMWReadReq.avgMshrMissLatency::total          inf                       # average LockedRMWReadReq mshr miss latency ((Tick/Count))
system.cpu.dcache.LockedRMWWriteReq.hits::cpu.data            4                       # number of LockedRMWWriteReq hits (Count)
system.cpu.dcache.LockedRMWWriteReq.hits::total            4                       # number of LockedRMWWriteReq hits (Count)
system.cpu.dcache.LockedRMWWriteReq.accesses::cpu.data            4                       # number of LockedRMWWriteReq accesses(hits+misses) (Count)
system.cpu.dcache.LockedRMWWriteReq.accesses::total            4                       # number of LockedRMWWriteReq accesses(hits+misses) (Count)
system.cpu.dcache.ReadReq.hits::cpu.data       114584                       # number of ReadReq hits (Count)
system.cpu.dcache.ReadReq.hits::total          114584                       # number of ReadReq hits (Count)
system.cpu.dcache.ReadReq.misses::cpu.data        30015                       # number of ReadReq misses (Count)
system.cpu.dcache.ReadReq.misses::total         30015                       # number of ReadReq misses (Count)
system.cpu.dcache.ReadReq.missLatency::cpu.data   1485499000                       # number of ReadReq miss ticks (Tick)
system.cpu.dcache.ReadReq.missLatency::total   1485499000                       # number of ReadReq miss ticks (Tick)
system.cpu.dcache.ReadReq.accesses::cpu.data       144599                       # number of ReadReq accesses(hits+misses) (Count)
system.cpu.dcache.ReadReq.accesses::total       144599                       # number of ReadReq accesses(hits+misses) (Count)
system.cpu.dcache.ReadReq.missRate::cpu.data     0.207574                       # miss rate for ReadReq accesses (Ratio)
system.cpu.dcache.ReadReq.missRate::total     0.207574                       # miss rate for ReadReq accesses (Ratio)
system.cpu.dcache.ReadReq.avgMissLatency::cpu.data 49491.887390                       # average ReadReq miss latency ((Tick/Count))
system.cpu.dcache.ReadReq.avgMissLatency::total 49491.887390                       # average ReadReq miss latency ((Tick/Count))
system.cpu.dcache.ReadReq.mshrHits::cpu.data        24416                       # number of ReadReq MSHR hits (Count)
system.cpu.dcache.ReadReq.mshrHits::total        24416                       # number of ReadReq MSHR hits (Count)
system.cpu.dcache.ReadReq.mshrMisses::cpu.data         5599                       # number of ReadReq MSHR misses (Count)
system.cpu.dcache.ReadReq.mshrMisses::total         5599                       # number of ReadReq MSHR misses (Count)
system.cpu.dcache.ReadReq.mshrMissLatency::cpu.data    328514000                       # number of ReadReq MSHR miss ticks (Tick)
system.cpu.dcache.ReadReq.mshrMissLatency::total    328514000                       # number of ReadReq MSHR miss ticks (Tick)
system.cpu.dcache.ReadReq.mshrMissRate::cpu.data     0.038721                       # mshr miss rate for ReadReq accesses (Ratio)
system.cpu.dcache.ReadReq.mshrMissRate::total     0.038721                       # mshr miss rate for ReadReq accesses (Ratio)
system.cpu.dcache.ReadReq.avgMshrMissLatency::cpu.data 58673.691731                       # average ReadReq mshr miss latency ((Tick/Count))
system.cpu.dcache.ReadReq.avgMshrMissLatency::total 58673.691731                       # average ReadReq mshr miss latency ((Tick/Count))
system.cpu.dcache.WriteReq.hits::cpu.data      1722640                       # number of WriteReq hits (Count)
system.cpu.dcache.WriteReq.hits::total        1722640                       # number of WriteReq hits (Count)
system.cpu.dcache.WriteReq.misses::cpu.data       476870                       # number of WriteReq misses (Count)
system.cpu.dcache.WriteReq.misses::total       476870                       # number of WriteReq misses (Count)
system.cpu.dcache.WriteReq.missLatency::cpu.data  37474799999                       # number of WriteReq miss ticks (Tick)
system.cpu.dcache.WriteReq.missLatency::total  37474799999                       # number of WriteReq miss ticks (Tick)
system.cpu.dcache.WriteReq.accesses::cpu.data      2199510                       # number of WriteReq accesses(hits+misses) (Count)
system.cpu.dcache.WriteReq.accesses::total      2199510                       # number of WriteReq accesses(hits+misses) (Count)
system.cpu.dcache.WriteReq.missRate::cpu.data     0.216807                       # miss rate for WriteReq accesses (Ratio)
system.cpu.dcache.WriteReq.missRate::total     0.216807                       # miss rate for WriteReq accesses (Ratio)
system.cpu.dcache.WriteReq.avgMissLatency::cpu.data 78584.939290                       # average WriteReq miss latency ((Tick/Count))
system.cpu.dcache.WriteReq.avgMissLatency::total 78584.939290                       # average WriteReq miss latency ((Tick/Count))
system.cpu.dcache.WriteReq.mshrHits::cpu.data        96063                       # number of WriteReq MSHR hits (Count)
system.cpu.dcache.WriteReq.mshrHits::total        96063                       # number of WriteReq MSHR hits (Count)
system.cpu.dcache.WriteReq.mshrMisses::cpu.data       380807                       # number of WriteReq MSHR misses (Count)
system.cpu.dcache.WriteReq.mshrMisses::total       380807                       # number of WriteReq MSHR misses (Count)
system.cpu.dcache.WriteReq.mshrMissLatency::cpu.data  30972405999                       # number of WriteReq MSHR miss ticks (Tick)
system.cpu.dcache.WriteReq.mshrMissLatency::total  30972405999                       # number of WriteReq MSHR miss ticks (Tick)
system.cpu.dcache.WriteReq.mshrMissRate::cpu.data     0.173133                       # mshr miss rate for WriteReq accesses (Ratio)
system.cpu.dcache.WriteReq.mshrMissRate::total     0.173133                       # mshr miss rate for WriteReq accesses (Ratio)
system.cpu.dcache.WriteReq.avgMshrMissLatency::cpu.data 81333.604684                       # average WriteReq mshr miss latency ((Tick/Count))
system.cpu.dcache.WriteReq.avgMshrMissLatency::total 81333.604684                       # average WriteReq mshr miss latency ((Tick/Count))
system.cpu.dcache.power_state.pwrStateResidencyTicks::UNDEFINED  41798054000                       # Cumulative time (in ticks) in various power states (Tick)
system.cpu.dcache.prefetcher.demandMshrMisses       386406                       # demands not covered by prefetchs (Count)
system.cpu.dcache.prefetcher.pfIssued          688430                       # number of hwpf issued (Count)
system.cpu.dcache.prefetcher.pfUnused          146872                       # number of HardPF blocks evicted w/o reference (Count)
system.cpu.dcache.prefetcher.pfUseful          296427                       # number of useful prefetch (Count)
system.cpu.dcache.prefetcher.pfUsefulButMiss            0                       # number of hit on prefetch but cache block is not in an usable state (Count)
system.cpu.dcache.prefetcher.accuracy        0.430584                       # accuracy of the prefetcher (Count)
system.cpu.dcache.prefetcher.coverage        0.434113                       # coverage brought by this prefetcher (Count)
system.cpu.dcache.prefetcher.pfHitInCache       143688                       # number of prefetches hitting in cache (Count)
system.cpu.dcache.prefetcher.pfHitInMSHR         4747                       # number of prefetches hitting in a MSHR (Count)
system.cpu.dcache.prefetcher.pfHitInWB              0                       # number of prefetches hit in the Write Buffer (Count)
system.cpu.dcache.prefetcher.pfLate            148435                       # number of late prefetches (hitting in cache, MSHR or WB) (Count)
system.cpu.dcache.prefetcher.pfIdentified      1053580                       # number of prefetch candidates identified (Count)
system.cpu.dcache.prefetcher.pfBufferHit       274803                       # number of redundant prefetches already in prefetch queue (Count)
system.cpu.dcache.prefetcher.pfInCache              0                       # number of redundant prefetches already in cache/mshr dropped (Count)
system.cpu.dcache.prefetcher.pfRemovedDemand        57713                       # number of prefetches dropped due to a demand for the same address (Count)
system.cpu.dcache.prefetcher.pfRemovedFull            0                       # number of prefetches dropped due to prefetch queue size (Count)
system.cpu.dcache.prefetcher.pfSpanPage        144005                       # number of prefetches that crossed the page (Count)
system.cpu.dcache.prefetcher.pfUsefulSpanPage            0                       # number of prefetches that is useful and crossed the page (Count)
system.cpu.dcache.prefetcher.ampm.power_state.pwrStateResidencyTicks::UNDEFINED  41798054000                       # Cumulative time (in ticks) in various power states (Tick)
system.cpu.dcache.prefetcher.power_state.pwrStateResidencyTicks::UNDEFINED  41798054000                       # Cumulative time (in ticks) in various power states (Tick)
system.cpu.dcache.tags.tagsInUse          1022.534898                       # Average ticks per tags in use ((Tick/Count))
system.cpu.dcache.tags.totalRefs              2763633                       # Total number of references to valid blocks. (Count)
system.cpu.dcache.tags.sampledRefs             926401                       # Sample count of references to valid blocks. (Count)
system.cpu.dcache.tags.avgRefs               2.983193                       # Average number of references to valid blocks. ((Count/Count))
system.cpu.dcache.tags.warmupTick              222000                       # The tick when the warmup percentage was hit. (Tick)
system.cpu.dcache.tags.occupancies::cpu.data   472.562578                       # Average occupied blocks per tick, per requestor ((Count/Tick))
system.cpu.dcache.tags.occupancies::cpu.dcache.prefetcher   549.972321                       # Average occupied blocks per tick, per requestor ((Count/Tick))
system.cpu.dcache.tags.avgOccs::cpu.data     0.461487                       # Average percentage of cache occupancy ((Ratio/Tick))
system.cpu.dcache.tags.avgOccs::cpu.dcache.prefetcher     0.537082                       # Average percentage of cache occupancy ((Ratio/Tick))
system.cpu.dcache.tags.avgOccs::total        0.998569                       # Average percentage of cache occupancy ((Ratio/Tick))
system.cpu.dcache.tags.occupanciesTaskId::1022          657                       # Occupied blocks per task id (Count)
system.cpu.dcache.tags.occupanciesTaskId::1024          367                       # Occupied blocks per task id (Count)
system.cpu.dcache.tags.ageTaskId_1022::0           85                       # Occupied blocks per task id, per block age (Count)
system.cpu.dcache.tags.ageTaskId_1022::1          572                       # Occupied blocks per task id, per block age (Count)
system.cpu.dcache.tags.ageTaskId_1024::0           72                       # Occupied blocks per task id, per block age (Count)
system.cpu.dcache.tags.ageTaskId_1024::1          295                       # Occupied blocks per task id, per block age (Count)
system.cpu.dcache.tags.ratioOccsTaskId::1022     0.641602                       # Ratio of occupied blocks and all blocks, per task id (Ratio)
system.cpu.dcache.tags.ratioOccsTaskId::1024     0.358398                       # Ratio of occupied blocks and all blocks, per task id (Ratio)
system.cpu.dcache.tags.tagAccesses            5614635                       # Number of tag accesses (Count)
system.cpu.dcache.tags.dataAccesses           5614635                       # Number of data accesses (Count)
system.cpu.dcache.tags.power_state.pwrStateResidencyTicks::UNDEFINED  41798054000                       # Cumulative time (in ticks) in various power states (Tick)
system.cpu.decode.idleCycles                   803181                       # Number of cycles decode is idle (Cycle)
system.cpu.decode.blockedCycles              38613684                       # Number of cycles decode is blocked (Cycle)
system.cpu.decode.runCycles                    861872                       # Number of cycles decode is running (Cycle)
system.cpu.decode.unblockCycles               1499367                       # Number of cycles decode is unblocking (Cycle)
system.cpu.decode.squashCycles                   1225                       # Number of cycles decode is squashing (Cycle)
system.cpu.decode.branchResolved              2271109                       # Number of times decode resolved a branch (Count)
system.cpu.decode.branchMispred                   243                       # Number of times decode detected a branch misprediction (Count)
system.cpu.decode.decodedInsts               17880034                       # Number of instructions handled by decode (Count)
system.cpu.decode.squashedInsts                  1130                       # Number of squashed instructions handled by decode (Count)
system.cpu.dtb_walker_cache.blockedCycles::no_mshrs            0                       # number of cycles access was blocked (Cycle)
system.cpu.dtb_walker_cache.blockedCycles::no_targets            0                       # number of cycles access was blocked (Cycle)
system.cpu.dtb_walker_cache.blockedCauses::no_mshrs            0                       # number of times access was blocked (Count)
system.cpu.dtb_walker_cache.blockedCauses::no_targets            0                       # number of times access was blocked (Count)
system.cpu.dtb_walker_cache.avgBlocked::no_mshrs          nan                       # average number of cycles each access was blocked ((Cycle/Count))
system.cpu.dtb_walker_cache.avgBlocked::no_targets          nan                       # average number of cycles each access was blocked ((Cycle/Count))
system.cpu.dtb_walker_cache.replacements            0                       # number of replacements (Count)
system.cpu.dtb_walker_cache.power_state.pwrStateResidencyTicks::UNDEFINED  41798054000                       # Cumulative time (in ticks) in various power states (Tick)
system.cpu.dtb_walker_cache.tags.tagsInUse            0                       # Average ticks per tags in use ((Tick/Count))
system.cpu.dtb_walker_cache.tags.totalRefs            0                       # Total number of references to valid blocks. (Count)
system.cpu.dtb_walker_cache.tags.sampledRefs            0                       # Sample count of references to valid blocks. (Count)
system.cpu.dtb_walker_cache.tags.avgRefs          nan                       # Average number of references to valid blocks. ((Count/Count))
system.cpu.dtb_walker_cache.tags.warmupTick            0                       # The tick when the warmup percentage was hit. (Tick)
system.cpu.dtb_walker_cache.tags.tagAccesses            0                       # Number of tag accesses (Count)
system.cpu.dtb_walker_cache.tags.dataAccesses            0                       # Number of data accesses (Count)
system.cpu.dtb_walker_cache.tags.power_state.pwrStateResidencyTicks::UNDEFINED  41798054000                       # Cumulative time (in ticks) in various power states (Tick)
system.cpu.fetch.icacheStallCycles             201557                       # Number of cycles fetch is stalled on an Icache miss (Cycle)
system.cpu.fetch.insts                       10059791                       # Number of instructions fetch has processed (Count)
system.cpu.fetch.branches                     2279483                       # Number of branches that fetch encountered (Count)
system.cpu.fetch.predictedBranches            2274583                       # Number of branches that fetch has predicted taken (Count)
system.cpu.fetch.cycles                      41575527                       # Number of cycles fetch has run and was not squashing or blocked (Cycle)
system.cpu.fetch.squashCycles                    2902                       # Number of cycles fetch has spent squashing (Cycle)
system.cpu.fetch.miscStallCycles                  118                       # Number of cycles fetch has spent waiting on interrupts, or bad addresses, or out of MSHRs (Cycle)
system.cpu.fetch.pendingTrapStallCycles           674                       # Number of stall cycles due to pending traps (Cycle)
system.cpu.fetch.icacheWaitRetryStallCycles            2                       # Number of stall cycles due to full MSHR (Cycle)
system.cpu.fetch.cacheLines                    190318                       # Number of cache lines fetched (Count)
system.cpu.fetch.icacheSquashes                   343                       # Number of outstanding Icache misses that were squashed (Count)
system.cpu.fetch.nisnDist::samples           41779329                       # Number of instructions fetched each cycle (Total) (Count)
system.cpu.fetch.nisnDist::mean              0.428658                       # Number of instructions fetched each cycle (Total) (Count)
system.cpu.fetch.nisnDist::stdev             1.590249                       # Number of instructions fetched each cycle (Total) (Count)
system.cpu.fetch.nisnDist::underflows               0      0.00%      0.00% # Number of instructions fetched each cycle (Total) (Count)
system.cpu.fetch.nisnDist::0                 38399792     91.91%     91.91% # Number of instructions fetched each cycle (Total) (Count)
system.cpu.fetch.nisnDist::1                   427810      1.02%     92.93% # Number of instructions fetched each cycle (Total) (Count)
system.cpu.fetch.nisnDist::2                   236280      0.57%     93.50% # Number of instructions fetched each cycle (Total) (Count)
system.cpu.fetch.nisnDist::3                   247342      0.59%     94.09% # Number of instructions fetched each cycle (Total) (Count)
system.cpu.fetch.nisnDist::4                   179398      0.43%     94.52% # Number of instructions fetched each cycle (Total) (Count)
system.cpu.fetch.nisnDist::5                   173848      0.42%     94.94% # Number of instructions fetched each cycle (Total) (Count)
system.cpu.fetch.nisnDist::6                   375794      0.90%     95.84% # Number of instructions fetched each cycle (Total) (Count)
system.cpu.fetch.nisnDist::7                  1487473      3.56%     99.40% # Number of instructions fetched each cycle (Total) (Count)
system.cpu.fetch.nisnDist::8                   251592      0.60%    100.00% # Number of instructions fetched each cycle (Total) (Count)
system.cpu.fetch.nisnDist::overflows                0      0.00%    100.00% # Number of instructions fetched each cycle (Total) (Count)
system.cpu.fetch.nisnDist::min_value                0                       # Number of instructions fetched each cycle (Total) (Count)
system.cpu.fetch.nisnDist::max_value                8                       # Number of instructions fetched each cycle (Total) (Count)
system.cpu.fetch.nisnDist::total             41779329                       # Number of instructions fetched each cycle (Total) (Count)
system.cpu.fetch.branchRate                  0.054536                       # Number of branch fetches per cycle (Ratio)
system.cpu.fetch.rate                        0.240676                       # Number of inst fetches per cycle ((Count/Cycle))
system.cpu.icache.demandHits::cpu.inst         189708                       # number of demand (read+write) hits (Count)
system.cpu.icache.demandHits::total            189708                       # number of demand (read+write) hits (Count)
system.cpu.icache.overallHits::cpu.inst        189708                       # number of overall hits (Count)
system.cpu.icache.overallHits::total           189708                       # number of overall hits (Count)
system.cpu.icache.demandMisses::cpu.inst          609                       # number of demand (read+write) misses (Count)
system.cpu.icache.demandMisses::total             609                       # number of demand (read+write) misses (Count)
system.cpu.icache.overallMisses::cpu.inst          609                       # number of overall misses (Count)
system.cpu.icache.overallMisses::total            609                       # number of overall misses (Count)
system.cpu.icache.demandMissLatency::cpu.inst     48398000                       # number of demand (read+write) miss ticks (Tick)
system.cpu.icache.demandMissLatency::total     48398000                       # number of demand (read+write) miss ticks (Tick)
system.cpu.icache.overallMissLatency::cpu.inst     48398000                       # number of overall miss ticks (Tick)
system.cpu.icache.overallMissLatency::total     48398000                       # number of overall miss ticks (Tick)
system.cpu.icache.demandAccesses::cpu.inst       190317                       # number of demand (read+write) accesses (Count)
system.cpu.icache.demandAccesses::total        190317                       # number of demand (read+write) accesses (Count)
system.cpu.icache.overallAccesses::cpu.inst       190317                       # number of overall (read+write) accesses (Count)
system.cpu.icache.overallAccesses::total       190317                       # number of overall (read+write) accesses (Count)
system.cpu.icache.demandMissRate::cpu.inst     0.003200                       # miss rate for demand accesses (Ratio)
system.cpu.icache.demandMissRate::total      0.003200                       # miss rate for demand accesses (Ratio)
system.cpu.icache.overallMissRate::cpu.inst     0.003200                       # miss rate for overall accesses (Ratio)
system.cpu.icache.overallMissRate::total     0.003200                       # miss rate for overall accesses (Ratio)
system.cpu.icache.demandAvgMissLatency::cpu.inst 79471.264368                       # average overall miss latency in ticks ((Tick/Count))
system.cpu.icache.demandAvgMissLatency::total 79471.264368                       # average overall miss latency in ticks ((Tick/Count))
system.cpu.icache.overallAvgMissLatency::cpu.inst 79471.264368                       # average overall miss latency ((Tick/Count))
system.cpu.icache.overallAvgMissLatency::total 79471.264368                       # average overall miss latency ((Tick/Count))
system.cpu.icache.blockedCycles::no_mshrs          107                       # number of cycles access was blocked (Cycle)
system.cpu.icache.blockedCycles::no_targets            0                       # number of cycles access was blocked (Cycle)
system.cpu.icache.blockedCauses::no_mshrs            4                       # number of times access was blocked (Count)
system.cpu.icache.blockedCauses::no_targets            0                       # number of times access was blocked (Count)
system.cpu.icache.avgBlocked::no_mshrs      26.750000                       # average number of cycles each access was blocked ((Cycle/Count))
system.cpu.icache.avgBlocked::no_targets          nan                       # average number of cycles each access was blocked ((Cycle/Count))
system.cpu.icache.writebacks::writebacks           21                       # number of writebacks (Count)
system.cpu.icache.writebacks::total                21                       # number of writebacks (Count)
system.cpu.icache.demandMshrHits::cpu.inst          109                       # number of demand (read+write) MSHR hits (Count)
system.cpu.icache.demandMshrHits::total           109                       # number of demand (read+write) MSHR hits (Count)
system.cpu.icache.overallMshrHits::cpu.inst          109                       # number of overall MSHR hits (Count)
system.cpu.icache.overallMshrHits::total          109                       # number of overall MSHR hits (Count)
system.cpu.icache.demandMshrMisses::cpu.inst          500                       # number of demand (read+write) MSHR misses (Count)
system.cpu.icache.demandMshrMisses::total          500                       # number of demand (read+write) MSHR misses (Count)
system.cpu.icache.overallMshrMisses::cpu.inst          500                       # number of overall MSHR misses (Count)
system.cpu.icache.overallMshrMisses::total          500                       # number of overall MSHR misses (Count)
system.cpu.icache.demandMshrMissLatency::cpu.inst     40754000                       # number of demand (read+write) MSHR miss ticks (Tick)
system.cpu.icache.demandMshrMissLatency::total     40754000                       # number of demand (read+write) MSHR miss ticks (Tick)
system.cpu.icache.overallMshrMissLatency::cpu.inst     40754000                       # number of overall MSHR miss ticks (Tick)
system.cpu.icache.overallMshrMissLatency::total     40754000                       # number of overall MSHR miss ticks (Tick)
system.cpu.icache.demandMshrMissRate::cpu.inst     0.002627                       # mshr miss ratio for demand accesses (Ratio)
system.cpu.icache.demandMshrMissRate::total     0.002627                       # mshr miss ratio for demand accesses (Ratio)
system.cpu.icache.overallMshrMissRate::cpu.inst     0.002627                       # mshr miss ratio for overall accesses (Ratio)
system.cpu.icache.overallMshrMissRate::total     0.002627                       # mshr miss ratio for overall accesses (Ratio)
system.cpu.icache.demandAvgMshrMissLatency::cpu.inst        81508                       # average overall mshr miss latency ((Tick/Count))
system.cpu.icache.demandAvgMshrMissLatency::total        81508                       # average overall mshr miss latency ((Tick/Count))
system.cpu.icache.overallAvgMshrMissLatency::cpu.inst        81508                       # average overall mshr miss latency ((Tick/Count))
system.cpu.icache.overallAvgMshrMissLatency::total        81508                       # average overall mshr miss latency ((Tick/Count))
system.cpu.icache.replacements                     21                       # number of replacements (Count)
system.cpu.icache.ReadReq.hits::cpu.inst       189708                       # number of ReadReq hits (Count)
system.cpu.icache.ReadReq.hits::total          189708                       # number of ReadReq hits (Count)
system.cpu.icache.ReadReq.misses::cpu.inst          609                       # number of ReadReq misses (Count)
system.cpu.icache.ReadReq.misses::total           609                       # number of ReadReq misses (Count)
system.cpu.icache.ReadReq.missLatency::cpu.inst     48398000                       # number of ReadReq miss ticks (Tick)
system.cpu.icache.ReadReq.missLatency::total     48398000                       # number of ReadReq miss ticks (Tick)
system.cpu.icache.ReadReq.accesses::cpu.inst       190317                       # number of ReadReq accesses(hits+misses) (Count)
system.cpu.icache.ReadReq.accesses::total       190317                       # number of ReadReq accesses(hits+misses) (Count)
system.cpu.icache.ReadReq.missRate::cpu.inst     0.003200                       # miss rate for ReadReq accesses (Ratio)
system.cpu.icache.ReadReq.missRate::total     0.003200                       # miss rate for ReadReq accesses (Ratio)
system.cpu.icache.ReadReq.avgMissLatency::cpu.inst 79471.264368                       # average ReadReq miss latency ((Tick/Count))
system.cpu.icache.ReadReq.avgMissLatency::total 79471.264368                       # average ReadReq miss latency ((Tick/Count))
system.cpu.icache.ReadReq.mshrHits::cpu.inst          109                       # number of ReadReq MSHR hits (Count)
system.cpu.icache.ReadReq.mshrHits::total          109                       # number of ReadReq MSHR hits (Count)
system.cpu.icache.ReadReq.mshrMisses::cpu.inst          500                       # number of ReadReq MSHR misses (Count)
system.cpu.icache.ReadReq.mshrMisses::total          500                       # number of ReadReq MSHR misses (Count)
system.cpu.icache.ReadReq.mshrMissLatency::cpu.inst     40754000                       # number of ReadReq MSHR miss ticks (Tick)
system.cpu.icache.ReadReq.mshrMissLatency::total     40754000                       # number of ReadReq MSHR miss ticks (Tick)
system.cpu.icache.ReadReq.mshrMissRate::cpu.inst     0.002627                       # mshr miss rate for ReadReq accesses (Ratio)
system.cpu.icache.ReadReq.mshrMissRate::total     0.002627                       # mshr miss rate for ReadReq accesses (Ratio)
system.cpu.icache.ReadReq.avgMshrMissLatency::cpu.inst        81508                       # average ReadReq mshr miss latency ((Tick/Count))
system.cpu.icache.ReadReq.avgMshrMissLatency::total        81508                       # average ReadReq mshr miss latency ((Tick/Count))
system.cpu.icache.power_state.pwrStateResidencyTicks::UNDEFINED  41798054000                       # Cumulative time (in ticks) in various power states (Tick)
system.cpu.icache.tags.tagsInUse           437.785741                       # Average ticks per tags in use ((Tick/Count))
system.cpu.icache.tags.totalRefs               190207                       # Total number of references to valid blocks. (Count)
system.cpu.icache.tags.sampledRefs                499                       # Sample count of references to valid blocks. (Count)
system.cpu.icache.tags.avgRefs             381.176353                       # Average number of references to valid blocks. ((Count/Count))
system.cpu.icache.tags.warmupTick              107000                       # The tick when the warmup percentage was hit. (Tick)
system.cpu.icache.tags.occupancies::cpu.inst   437.785741                       # Average occupied blocks per tick, per requestor ((Count/Tick))
system.cpu.icache.tags.avgOccs::cpu.inst     0.427525                       # Average percentage of cache occupancy ((Ratio/Tick))
system.cpu.icache.tags.avgOccs::total        0.427525                       # Average percentage of cache occupancy ((Ratio/Tick))
system.cpu.icache.tags.occupanciesTaskId::1024          478                       # Occupied blocks per task id (Count)
system.cpu.icache.tags.ageTaskId_1024::0           43                       # Occupied blocks per task id, per block age (Count)
system.cpu.icache.tags.ageTaskId_1024::2            1                       # Occupied blocks per task id, per block age (Count)
system.cpu.icache.tags.ageTaskId_1024::4          434                       # Occupied blocks per task id, per block age (Count)
system.cpu.icache.tags.ratioOccsTaskId::1024     0.466797                       # Ratio of occupied blocks and all blocks, per task id (Ratio)
system.cpu.icache.tags.tagAccesses             381133                       # Number of tag accesses (Count)
system.cpu.icache.tags.dataAccesses            381133                       # Number of data accesses (Count)
system.cpu.icache.tags.power_state.pwrStateResidencyTicks::UNDEFINED  41798054000                       # Cumulative time (in ticks) in various power states (Tick)
system.cpu.iew.idleCycles                           0                       # Number of cycles IEW is idle (Cycle)
system.cpu.iew.squashCycles                      1225                       # Number of cycles IEW is squashing (Cycle)
system.cpu.iew.blockCycles                     211496                       # Number of cycles IEW is blocking (Cycle)
system.cpu.iew.unblockCycles                 13950244                       # Number of cycles IEW is unblocking (Cycle)
system.cpu.iew.dispatchedInsts               17867774                       # Number of instructions dispatched to IQ (Count)
system.cpu.iew.dispSquashedInsts                  105                       # Number of squashed instructions skipped by dispatch (Count)
system.cpu.iew.dispLoadInsts                   129731                       # Number of dispatched load instructions (Count)
system.cpu.iew.dispStoreInsts                 2207670                       # Number of dispatched store instructions (Count)
system.cpu.iew.dispNonSpecInsts                    12                       # Number of dispatched non-speculative instructions (Count)
[...]
system.mem_ctrls.dram.perBankWrBursts::13        48125                       # Per bank write bursts (Count)
system.mem_ctrls.dram.perBankWrBursts::14        42434                       # Per bank write bursts (Count)
system.mem_ctrls.dram.perBankWrBursts::15        41990                       # Per bank write bursts (Count)
system.mem_ctrls.dram.totQLat             23613321854                       # Total ticks spent queuing (Tick)
system.mem_ctrls.dram.totBusLat            4767750000                       # Total ticks spent in databus transfers (Tick)
system.mem_ctrls.dram.totMemAccLat        41492384354                       # Total ticks spent from burst creation until serviced by the DRAM (Tick)
system.mem_ctrls.dram.avgQLat                24763.59                       # Average queueing delay per DRAM burst ((Tick/Count))
system.mem_ctrls.dram.avgBusLat               5000.00                       # Average bus latency per DRAM burst ((Tick/Count))
system.mem_ctrls.dram.avgMemAccLat           43513.59                       # Average memory access latency per DRAM burst ((Tick/Count))
system.mem_ctrls.dram.readRowHits              867525                       # Number of row buffer hits during reads (Count)
system.mem_ctrls.dram.writeRowHits             551597                       # Number of row buffer hits during writes (Count)
system.mem_ctrls.dram.readRowHitRate            90.98                       # Row buffer hit rate for reads (Ratio)
system.mem_ctrls.dram.writeRowHitRate           75.24                       # Row buffer hit rate for writes (Ratio)
system.mem_ctrls.dram.bytesPerActivate::samples       267545                       # Bytes accessed per row activation (Byte)
system.mem_ctrls.dram.bytesPerActivate::mean   403.468276                       # Bytes accessed per row activation (Byte)
system.mem_ctrls.dram.bytesPerActivate::gmean   230.297594                       # Bytes accessed per row activation (Byte)
system.mem_ctrls.dram.bytesPerActivate::stdev   387.170445                       # Bytes accessed per row activation (Byte)
system.mem_ctrls.dram.bytesPerActivate::0-127        82729     30.92%     30.92% # Bytes accessed per row activation (Byte)
system.mem_ctrls.dram.bytesPerActivate::128-255        61571     23.01%     53.93% # Bytes accessed per row activation (Byte)
system.mem_ctrls.dram.bytesPerActivate::256-383        21260      7.95%     61.88% # Bytes accessed per row activation (Byte)
system.mem_ctrls.dram.bytesPerActivate::384-511        11894      4.45%     66.33% # Bytes accessed per row activation (Byte)
system.mem_ctrls.dram.bytesPerActivate::512-639         9028      3.37%     69.70% # Bytes accessed per row activation (Byte)
system.mem_ctrls.dram.bytesPerActivate::640-767         7989      2.99%     72.69% # Bytes accessed per row activation (Byte)
system.mem_ctrls.dram.bytesPerActivate::768-895         7854      2.94%     75.62% # Bytes accessed per row activation (Byte)
system.mem_ctrls.dram.bytesPerActivate::896-1023         8505      3.18%     78.80% # Bytes accessed per row activation (Byte)
system.mem_ctrls.dram.bytesPerActivate::1024-1151        56715     21.20%    100.00% # Bytes accessed per row activation (Byte)
system.mem_ctrls.dram.bytesPerActivate::total       267545                       # Bytes accessed per row activation (Byte)
system.mem_ctrls.dram.bytesRead              61027200                       # Total bytes read (Byte)
system.mem_ctrls.dram.bytesWritten           46919616                       # Total bytes written (Byte)
system.mem_ctrls.dram.avgRdBW             1460.048834                       # Average DRAM read bandwidth in MiBytes/s ((Byte/Second))
system.mem_ctrls.dram.avgWrBW             1122.531111                       # Average DRAM write bandwidth in MiBytes/s ((Byte/Second))
system.mem_ctrls.dram.peakBW                 12800.00                       # Theoretical peak bandwidth in MiByte/s ((Byte/Second))
system.mem_ctrls.dram.busUtil                   20.18                       # Data bus utilization in percentage (Ratio)
system.mem_ctrls.dram.busUtilRead               11.41                       # Data bus utilization in percentage for reads (Ratio)
system.mem_ctrls.dram.busUtilWrite               8.77                       # Data bus utilization in percentage for writes (Ratio)
system.mem_ctrls.dram.pageHitRate               84.14                       # Row buffer hit rate, read and write combined (Ratio)
system.mem_ctrls.dram.power_state.pwrStateResidencyTicks::UNDEFINED  41798054000                       # Cumulative time (in ticks) in various power states (Tick)
system.mem_ctrls.dram.rank0.actEnergy       937674780                       # Energy for activate commands per rank (pJ) (Joule)
system.mem_ctrls.dram.rank0.preEnergy       498382170                       # Energy for precharge commands per rank (pJ) (Joule)
system.mem_ctrls.dram.rank0.readEnergy     3341462880                       # Energy for read commands per rank (pJ) (Joule)
system.mem_ctrls.dram.rank0.writeEnergy    1880802540                       # Energy for write commands per rank (pJ) (Joule)
system.mem_ctrls.dram.rank0.refreshEnergy 3299387520.000000                       # Energy for refresh commands per rank (pJ) (Joule)
system.mem_ctrls.dram.rank0.actBackEnergy  16107287430                       # Energy for active background per rank (pJ) (Joule)
system.mem_ctrls.dram.rank0.preBackEnergy   2486421600                       # Energy for precharge background per rank (pJ) (Joule)
system.mem_ctrls.dram.rank0.actPowerDownEnergy            0                       # Energy for active power-down per rank (pJ) (Joule)
system.mem_ctrls.dram.rank0.prePowerDownEnergy            0                       # Energy for precharge power-down per rank (pJ) (Joule)
system.mem_ctrls.dram.rank0.selfRefreshEnergy            0                       # Energy for self refresh per rank (pJ) (Joule)
system.mem_ctrls.dram.rank0.totalEnergy   28551418920                       # Total energy per rank (pJ) (Joule)
system.mem_ctrls.dram.rank0.averagePower   683.080100                       # Core power per rank (mW) (Watt)
system.mem_ctrls.dram.rank0.totalIdleTime            0                       # Total Idle time Per DRAM Rank (Tick)
system.mem_ctrls.dram.rank0.pwrStateTime::IDLE   6202444471                       # Time in different power states (Tick)
system.mem_ctrls.dram.rank0.pwrStateTime::REF   1395680000                       # Time in different power states (Tick)
system.mem_ctrls.dram.rank0.pwrStateTime::SREF            0                       # Time in different power states (Tick)
system.mem_ctrls.dram.rank0.pwrStateTime::PRE_PDN            0                       # Time in different power states (Tick)
system.mem_ctrls.dram.rank0.pwrStateTime::ACT  34199929529                       # Time in different power states (Tick)
system.mem_ctrls.dram.rank0.pwrStateTime::ACT_PDN            0                       # Time in different power states (Tick)
system.mem_ctrls.dram.rank1.actEnergy       972610800                       # Energy for activate commands per rank (pJ) (Joule)
system.mem_ctrls.dram.rank1.preEnergy       516951105                       # Energy for precharge commands per rank (pJ) (Joule)
system.mem_ctrls.dram.rank1.readEnergy     3466876980                       # Energy for read commands per rank (pJ) (Joule)
system.mem_ctrls.dram.rank1.writeEnergy    1946078640                       # Energy for write commands per rank (pJ) (Joule)
system.mem_ctrls.dram.rank1.refreshEnergy 3299387520.000000                       # Energy for refresh commands per rank (pJ) (Joule)
system.mem_ctrls.dram.rank1.actBackEnergy  16195181430                       # Energy for active background per rank (pJ) (Joule)
system.mem_ctrls.dram.rank1.preBackEnergy   2412405600                       # Energy for precharge background per rank (pJ) (Joule)
system.mem_ctrls.dram.rank1.actPowerDownEnergy            0                       # Energy for active power-down per rank (pJ) (Joule)
system.mem_ctrls.dram.rank1.prePowerDownEnergy            0                       # Energy for precharge power-down per rank (pJ) (Joule)
system.mem_ctrls.dram.rank1.selfRefreshEnergy            0                       # Energy for self refresh per rank (pJ) (Joule)
system.mem_ctrls.dram.rank1.totalEnergy   28809492075                       # Total energy per rank (pJ) (Joule)
system.mem_ctrls.dram.rank1.averagePower   689.254387                       # Core power per rank (mW) (Watt)
system.mem_ctrls.dram.rank1.totalIdleTime            0                       # Total Idle time Per DRAM Rank (Tick)
system.mem_ctrls.dram.rank1.pwrStateTime::IDLE   6008006982                       # Time in different power states (Tick)
system.mem_ctrls.dram.rank1.pwrStateTime::REF   1395680000                       # Time in different power states (Tick)
system.mem_ctrls.dram.rank1.pwrStateTime::SREF            0                       # Time in different power states (Tick)
system.mem_ctrls.dram.rank1.pwrStateTime::PRE_PDN            0                       # Time in different power states (Tick)
system.mem_ctrls.dram.rank1.pwrStateTime::ACT  34394367018                       # Time in different power states (Tick)
system.mem_ctrls.dram.rank1.pwrStateTime::ACT_PDN            0                       # Time in different power states (Tick)
system.mem_ctrls.power_state.pwrStateResidencyTicks::UNDEFINED  41798054000                       # Cumulative time (in ticks) in various power states (Tick)
system.membus.transDist::ReadResp              711756                       # Transaction distribution (Count)
system.membus.transDist::WritebackDirty        733141                       # Transaction distribution (Count)
system.membus.transDist::CleanEvict            215939                       # Transaction distribution (Count)
system.membus.transDist::ReadExReq             241855                       # Transaction distribution (Count)
system.membus.transDist::ReadExResp            241855                       # Transaction distribution (Count)
system.membus.transDist::ReadSharedReq         711757                       # Transaction distribution (Count)
system.membus.pktCount_system.l2.mem_side_port::system.mem_ctrls.port      2856303                       # Packet count per connected requestor and responder (Count)
system.membus.pktCount_system.l2.mem_side_port::total      2856303                       # Packet count per connected requestor and responder (Count)
system.membus.pktCount::total                 2856303                       # Packet count per connected requestor and responder (Count)
system.membus.pktSize_system.l2.mem_side_port::system.mem_ctrls.port    107952128                       # Cumulative packet size per connected requestor and responder (Byte)
system.membus.pktSize_system.l2.mem_side_port::total    107952128                       # Cumulative packet size per connected requestor and responder (Byte)
system.membus.pktSize::total                107952128                       # Cumulative packet size per connected requestor and responder (Byte)
system.membus.snoops                                0                       # Total snoops (Count)
system.membus.snoopTraffic                          0                       # Total snoop traffic (Byte)
system.membus.snoopFanout::samples             953612                       # Request fanout histogram (Count)
system.membus.snoopFanout::mean                     0                       # Request fanout histogram (Count)
system.membus.snoopFanout::stdev                    0                       # Request fanout histogram (Count)
system.membus.snoopFanout::underflows               0      0.00%      0.00% # Request fanout histogram (Count)
system.membus.snoopFanout::0                   953612    100.00%    100.00% # Request fanout histogram (Count)
system.membus.snoopFanout::1                        0      0.00%    100.00% # Request fanout histogram (Count)
system.membus.snoopFanout::overflows                0      0.00%    100.00% # Request fanout histogram (Count)
system.membus.snoopFanout::min_value                0                       # Request fanout histogram (Count)
system.membus.snoopFanout::max_value                0                       # Request fanout histogram (Count)
system.membus.snoopFanout::total               953612                       # Request fanout histogram (Count)
system.membus.power_state.pwrStateResidencyTicks::UNDEFINED  41798054000                       # Cumulative time (in ticks) in various power states (Tick)
system.membus.reqLayer2.occupancy          4941891737                       # Layer occupancy (ticks) (Tick)
system.membus.reqLayer2.utilization               0.1                       # Layer utilization (Ratio)
system.membus.respLayer1.occupancy         4930991165                       # Layer occupancy (ticks) (Tick)
system.membus.respLayer1.utilization              0.1                       # Layer utilization (Ratio)
system.membus.snoop_filter.totRequests        1902692                       # Total number of requests made to the snoop filter. (Count)
system.membus.snoop_filter.hitSingleRequests       949080                       # Number of requests hitting in the snoop filter with a single holder of the requested data. (Count)
system.membus.snoop_filter.hitMultiRequests            0                       # Number of requests hitting in the snoop filter with multiple (>1) holders of the requested data. (Count)
system.membus.snoop_filter.totSnoops                0                       # Total number of snoops made to the snoop filter. (Count)
system.membus.snoop_filter.hitSingleSnoops            0                       # Number of snoops hitting in the snoop filter with a single holder of the requested data. (Count)
system.membus.snoop_filter.hitMultiSnoops            0                       # Number of snoops hitting in the snoop filter with multiple (>1) holders of the requested data. (Count)
system.tol2bus.transDist::ReadResp             545947                       # Transaction distribution (Count)
system.tol2bus.transDist::WritebackDirty      1501805                       # Transaction distribution (Count)
system.tol2bus.transDist::WritebackClean           21                       # Transaction distribution (Count)
system.tol2bus.transDist::CleanEvict           374557                       # Transaction distribution (Count)
system.tol2bus.transDist::HardPFReq            665751                       # Transaction distribution (Count)
system.tol2bus.transDist::ReadExReq            380953                       # Transaction distribution (Count)
system.tol2bus.transDist::ReadExResp           380953                       # Transaction distribution (Count)
system.tol2bus.transDist::ReadCleanReq            500                       # Transaction distribution (Count)
system.tol2bus.transDist::ReadSharedReq        545448                       # Transaction distribution (Count)
system.tol2bus.pktCount_system.cpu.icache.mem_side_port::system.l2.cpu_side_port         1020                       # Packet count per connected requestor and responder (Count)
system.tol2bus.pktCount_system.cpu.dcache.mem_side_port::system.l2.cpu_side_port      2778179                       # Packet count per connected requestor and responder (Count)
system.tol2bus.pktCount::total                2779199                       # Packet count per connected requestor and responder (Count)
system.tol2bus.pktSize_system.cpu.icache.mem_side_port::system.l2.cpu_side_port        33280                       # Cumulative packet size per connected requestor and responder (Byte)
system.tol2bus.pktSize_system.cpu.dcache.mem_side_port::system.l2.cpu_side_port    108484160                       # Cumulative packet size per connected requestor and responder (Byte)
system.tol2bus.pktSize::total               108517440                       # Cumulative packet size per connected requestor and responder (Byte)
system.tol2bus.snoops                         1616736                       # Total snoops (Count)
system.tol2bus.snoopTraffic                  46921024                       # Total snoop traffic (Byte)
system.tol2bus.snoopFanout::samples           2543637                       # Request fanout histogram (Count)
system.tol2bus.snoopFanout::mean             0.001379                       # Request fanout histogram (Count)
system.tol2bus.snoopFanout::stdev            0.037106                       # Request fanout histogram (Count)
system.tol2bus.snoopFanout::underflows              0      0.00%      0.00% # Request fanout histogram (Count)
system.tol2bus.snoopFanout::0                 2540130     99.86%     99.86% # Request fanout histogram (Count)
system.tol2bus.snoopFanout::1                    3507      0.14%    100.00% # Request fanout histogram (Count)
system.tol2bus.snoopFanout::2                       0      0.00%    100.00% # Request fanout histogram (Count)
system.tol2bus.snoopFanout::3                       0      0.00%    100.00% # Request fanout histogram (Count)
system.tol2bus.snoopFanout::4                       0      0.00%    100.00% # Request fanout histogram (Count)
system.tol2bus.snoopFanout::overflows               0      0.00%    100.00% # Request fanout histogram (Count)
system.tol2bus.snoopFanout::min_value               0                       # Request fanout histogram (Count)
system.tol2bus.snoopFanout::max_value               1                       # Request fanout histogram (Count)
system.tol2bus.snoopFanout::total             2543637                       # Request fanout histogram (Count)
system.tol2bus.power_state.pwrStateResidencyTicks::UNDEFINED  41798054000                       # Cumulative time (in ticks) in various power states (Tick)
system.tol2bus.reqLayer0.occupancy         3783040408                       # Layer occupancy (ticks) (Tick)
system.tol2bus.reqLayer0.utilization              0.1                       # Layer utilization (Ratio)
system.tol2bus.respLayer0.occupancy           1497000                       # Layer occupancy (ticks) (Tick)
system.tol2bus.respLayer0.utilization             0.0                       # Layer utilization (Ratio)
system.tol2bus.respLayer1.occupancy        2779203000                       # Layer occupancy (ticks) (Tick)
system.tol2bus.respLayer1.utilization             0.1                       # Layer utilization (Ratio)
system.tol2bus.snoop_filter.totRequests       1852299                       # Total number of requests made to the snoop filter. (Count)
system.tol2bus.snoop_filter.hitSingleRequests       925398                       # Number of requests hitting in the snoop filter with a single holder of the requested data. (Count)
system.tol2bus.snoop_filter.hitMultiRequests            0                       # Number of requests hitting in the snoop filter with multiple (>1) holders of the requested data. (Count)
system.tol2bus.snoop_filter.totSnoops            3507                       # Total number of snoops made to the snoop filter. (Count)
system.tol2bus.snoop_filter.hitSingleSnoops         3507                       # Number of snoops hitting in the snoop filter with a single holder of the requested data. (Count)
system.tol2bus.snoop_filter.hitMultiSnoops            0                       # Number of snoops hitting in the snoop filter with multiple (>1) holders of the requested data. (Count)
system.voltage_domain.voltage                       1                       # Voltage in Volts (Volt)
system.workload.inst.arm                            0                       # number of arm instructions executed (Count)
system.workload.inst.quiesce                        0                       # number of quiesce instructions executed (Count)

---------- End Simulation Statistics   ----------
