
---------- Begin Simulation Statistics ----------
simSeconds                                   0.097316                       # Number of seconds simulated (Second)
simTicks                                  97315866000                       # Number of ticks simulated (Tick)
finalTick                                 97315866000                       # Number of ticks from beginning of simulation (restored from checkpoints and never reset) (Tick)
simFreq                                  1000000000000                       # The number of ticks per simulated second ((Tick/Second))
hostSeconds                                    188.07                       # Real time elapsed on the host (Second)
hostTickRate                                517431703                       # The number of ticks simulated per host second (ticks/s) ((Tick/Second))
hostMemory                                     669684                       # Number of bytes of host memory used (Byte)
simInsts                                     41897907                       # Number of instructions simulated (Count)
simOps                                       62838257                       # Number of ops (including micro ops) simulated (Count)
hostInstRate                                   222772                       # Simulator instruction rate (inst/s) ((Count/Second))
hostOpRate                                     334113                       # Simulator op (including micro ops) rate (op/s) ((Count/Second))
system.clk_domain.clock                          1000                       # Clock period in ticks (Tick)
system.cpu.numCycles                         97315867                       # Number of cpu cycles simulated (Cycle)
system.cpu.numWorkItemsStarted                      0                       # Number of work items this cpu started (Count)
system.cpu.numWorkItemsCompleted                    0                       # Number of work items this cpu completed (Count)
system.cpu.instsAdded                        65049075                       # Number of instructions added to the IQ (excludes non-spec) (Count)
system.cpu.nonSpecInstsAdded                        3                       # Number of non-speculative instructions added to the IQ (Count)
system.cpu.instsIssued                       65358313                       # Number of instructions issued (Count)
system.cpu.squashedInstsIssued                     49                       # Number of squashed instructions issued (Count)
system.cpu.squashedInstsExamined              2210815                       # Number of squashed instructions iterated over during squash; mainly for profiling (Count)
system.cpu.squashedOperandsExamined           4992633                       # Number of squashed operands that are examined and possibly removed from graph (Count)
system.cpu.squashedNonSpecRemoved                   3                       # Number of squashed non-spec instructions that were removed (Count)
system.cpu.numIssuedDist::samples            97298233                       # Number of insts issued each cycle (Count)
system.cpu.numIssuedDist::mean               0.671732                       # Number of insts issued each cycle (Count)
system.cpu.numIssuedDist::stdev              1.049866                       # Number of insts issued each cycle (Count)
system.cpu.numIssuedDist::underflows                0      0.00%      0.00% # Number of insts issued each cycle (Count)
system.cpu.numIssuedDist::0                  59008625     60.65%     60.65% # Number of insts issued each cycle (Count)
system.cpu.numIssuedDist::1                  23154857     23.80%     84.44% # Number of insts issued each cycle (Count)
system.cpu.numIssuedDist::2                   6653645      6.84%     91.28% # Number of insts issued each cycle (Count)
system.cpu.numIssuedDist::3                   5281383      5.43%     96.71% # Number of insts issued each cycle (Count)
system.cpu.numIssuedDist::4                   3062354      3.15%     99.86% # Number of insts issued each cycle (Count)
system.cpu.numIssuedDist::5                     74225      0.08%     99.94% # Number of insts issued each cycle (Count)
system.cpu.numIssuedDist::6                     27916      0.03%     99.96% # Number of insts issued each cycle (Count)
system.cpu.numIssuedDist::7                     17844      0.02%     99.98% # Number of insts issued each cycle (Count)
system.cpu.numIssuedDist::8                     17384      0.02%    100.00% # Number of insts issued each cycle (Count)
system.cpu.numIssuedDist::overflows                 0      0.00%    100.00% # Number of insts issued each cycle (Count)
system.cpu.numIssuedDist::min_value                 0                       # Number of insts issued each cycle (Count)
system.cpu.numIssuedDist::max_value                 8                       # Number of insts issued each cycle (Count)
system.cpu.numIssuedDist::total              97298233                       # Number of insts issued each cycle (Count)
system.cpu.statFuBusy::No_OpClass                   0      0.00%      0.00% # attempts to use FU when none available (Count)
system.cpu.statFuBusy::IntAlu                     239     17.93%     17.93% # attempts to use FU when none available (Count)
system.cpu.statFuBusy::IntMult                      0      0.00%     17.93% # attempts to use FU when none available (Count)
system.cpu.statFuBusy::IntDiv                       0      0.00%     17.93% # attempts to use FU when none available (Count)
system.cpu.statFuBusy::FloatAdd                     0      0.00%     17.93% # attempts to use FU when none available (Count)
system.cpu.statFuBusy::FloatCmp                     0      0.00%     17.93% # attempts to use FU when none available (Count)
system.cpu.statFuBusy::FloatCvt                     0      0.00%     17.93% # attempts to use FU when none available (Count)
system.cpu.statFuBusy::FloatMult                    0      0.00%     17.93% # attempts to use FU when none available (Count)
system.cpu.statFuBusy::FloatMultAcc                 0      0.00%     17.93% # attempts to use FU when none available (Count)
system.cpu.statFuBusy::FloatDiv                     0      0.00%     17.93% # attempts to use FU when none available (Count)
system.cpu.statFuBusy::FloatMisc                    0      0.00%     17.93% # attempts to use FU when none available (Count)
system.cpu.statFuBusy::FloatSqrt                    0      0.00%     17.93% # attempts to use FU when none available (Count)
system.cpu.statFuBusy::SimdAdd                      0      0.00%     17.93% # attempts to use FU when none available (Count)
system.cpu.statFuBusy::SimdAddAcc                   0      0.00%     17.93% # attempts to use FU when none available (Count)
system.cpu.statFuBusy::SimdAlu                     10      0.75%     18.68% # attempts to use FU when none available (Count)
system.cpu.statFuBusy::SimdCmp                      0      0.00%     18.68% # attempts to use FU when none available (Count)
system.cpu.statFuBusy::SimdCvt                      1      0.08%     18.75% # attempts to use FU when none available (Count)
system.cpu.statFuBusy::SimdMisc                     1      0.08%     18.83% # attempts to use FU when none available (Count)
system.cpu.statFuBusy::SimdMult                     0      0.00%     18.83% # attempts to use FU when none available (Count)
system.cpu.statFuBusy::SimdMultAcc                  0      0.00%     18.83% # attempts to use FU when none available (Count)
system.cpu.statFuBusy::SimdShift                    0      0.00%     18.83% # attempts to use FU when none available (Count)
system.cpu.statFuBusy::SimdShiftAcc                 0      0.00%     18.83% # attempts to use FU when none available (Count)
system.cpu.statFuBusy::SimdDiv                      0      0.00%     18.83% # attempts to use FU when none available (Count)
system.cpu.statFuBusy::SimdSqrt                     0      0.00%     18.83% # attempts to use FU when none available (Count)
system.cpu.statFuBusy::SimdFloatAdd                 0      0.00%     18.83% # attempts to use FU when none available (Count)
system.cpu.statFuBusy::SimdFloatAlu                 0      0.00%     18.83% # attempts to use FU when none available (Count)
system.cpu.statFuBusy::SimdFloatCmp                 0      0.00%     18.83% # attempts to use FU when none available (Count)
system.cpu.statFuBusy::SimdFloatCvt                 0      0.00%     18.83% # attempts to use FU when none available (Count)
system.cpu.statFuBusy::SimdFloatDiv                 0      0.00%     18.83% # attempts to use FU when none available (Count)
system.cpu.statFuBusy::SimdFloatMisc                0      0.00%     18.83% # attempts to use FU when none available (Count)
system.cpu.statFuBusy::SimdFloatMult                0      0.00%     18.83% # attempts to use FU when none available (Count)
system.cpu.statFuBusy::SimdFloatMultAcc             0      0.00%     18.83% # attempts to use FU when none available (Count)
system.cpu.statFuBusy::SimdFloatSqrt                0      0.00%     18.83% # attempts to use FU when none available (Count)
system.cpu.statFuBusy::SimdReduceAdd                0      0.00%     18.83% # attempts to use FU when none available (Count)
system.cpu.statFuBusy::SimdReduceAlu                0      0.00%     18.83% # attempts to use FU when none available (Count)
system.cpu.statFuBusy::SimdReduceCmp                0      0.00%     18.83% # attempts to use FU when none available (Count)
system.cpu.statFuBusy::SimdFloatReduceAdd            0      0.00%     18.83% # attempts to use FU when none available (Count)
system.cpu.statFuBusy::SimdFloatReduceCmp            0      0.00%     18.83% # attempts to use FU when none available (Count)
system.cpu.statFuBusy::SimdAes                      0      0.00%     18.83% # attempts to use FU when none available (Count)
system.cpu.statFuBusy::SimdAesMix                   0      0.00%     18.83% # attempts to use FU when none available (Count)
system.cpu.statFuBusy::SimdSha1Hash                 0      0.00%     18.83% # attempts to use FU when none available (Count)
system.cpu.statFuBusy::SimdSha1Hash2                0      0.00%     18.83% # attempts to use FU when none available (Count)
system.cpu.statFuBusy::SimdSha256Hash               0      0.00%     18.83% # attempts to use FU when none available (Count)
system.cpu.statFuBusy::SimdSha256Hash2              0      0.00%     18.83% # attempts to use FU when none available (Count)
system.cpu.statFuBusy::SimdShaSigma2                0      0.00%     18.83% # attempts to use FU when none available (Count)
system.cpu.statFuBusy::SimdShaSigma3                0      0.00%     18.83% # attempts to use FU when none available (Count)
system.cpu.statFuBusy::SimdPredAlu                  0      0.00%     18.83% # attempts to use FU when none available (Count)
system.cpu.statFuBusy::MemRead                   1006     75.47%     94.30% # attempts to use FU when none available (Count)
system.cpu.statFuBusy::MemWrite                    39      2.93%     97.22% # attempts to use FU when none available (Count)
system.cpu.statFuBusy::FloatMemRead                20      1.50%     98.72% # attempts to use FU when none available (Count)
system.cpu.statFuBusy::FloatMemWrite               17      1.28%    100.00% # attempts to use FU when none available (Count)
system.cpu.statFuBusy::IprAccess                    0      0.00%    100.00% # attempts to use FU when none available (Count)
system.cpu.statFuBusy::InstPrefetch                 0      0.00%    100.00% # attempts to use FU when none available (Count)
system.cpu.statIssuedInstType_0::No_OpClass          680      0.00%      0.00% # Number of instructions issued per FU type, per thread (Count)
system.cpu.statIssuedInstType_0::IntAlu      24554742     37.57%     37.57% # Number of instructions issued per FU type, per thread (Count)
system.cpu.statIssuedInstType_0::IntMult            7      0.00%     37.57% # Number of instructions issued per FU type, per thread (Count)
system.cpu.statIssuedInstType_0::IntDiv            28      0.00%     37.57% # Number of instructions issued per FU type, per thread (Count)
system.cpu.statIssuedInstType_0::FloatAdd      9852997     15.08%     52.65% # Number of instructions issued per FU type, per thread (Count)
system.cpu.statIssuedInstType_0::FloatCmp            0      0.00%     52.65% # Number of instructions issued per FU type, per thread (Count)
system.cpu.statIssuedInstType_0::FloatCvt            0      0.00%     52.65% # Number of instructions issued per FU type, per thread (Count)
system.cpu.statIssuedInstType_0::FloatMult            0      0.00%     52.65% # Number of instructions issued per FU type, per thread (Count)
system.cpu.statIssuedInstType_0::FloatMultAcc            0      0.00%     52.65% # Number of instructions issued per FU type, per thread (Count)
system.cpu.statIssuedInstType_0::FloatDiv            0      0.00%     52.65% # Number of instructions issued per FU type, per thread (Count)
system.cpu.statIssuedInstType_0::FloatMisc            0      0.00%     52.65% # Number of instructions issued per FU type, per thread (Count)
system.cpu.statIssuedInstType_0::FloatSqrt            0      0.00%     52.65% # Number of instructions issued per FU type, per thread (Count)
system.cpu.statIssuedInstType_0::SimdAdd            0      0.00%     52.65% # Number of instructions issued per FU type, per thread (Count)
system.cpu.statIssuedInstType_0::SimdAddAcc            0      0.00%     52.65% # Number of instructions issued per FU type, per thread (Count)
system.cpu.statIssuedInstType_0::SimdAlu        99133      0.15%     52.80% # Number of instructions issued per FU type, per thread (Count)
system.cpu.statIssuedInstType_0::SimdCmp            0      0.00%     52.80% # Number of instructions issued per FU type, per thread (Count)
system.cpu.statIssuedInstType_0::SimdCvt           46      0.00%     52.80% # Number of instructions issued per FU type, per thread (Count)
system.cpu.statIssuedInstType_0::SimdMisc          217      0.00%     52.80% # Number of instructions issued per FU type, per thread (Count)
system.cpu.statIssuedInstType_0::SimdMult            0      0.00%     52.80% # Number of instructions issued per FU type, per thread (Count)
system.cpu.statIssuedInstType_0::SimdMultAcc            0      0.00%     52.80% # Number of instructions issued per FU type, per thread (Count)
system.cpu.statIssuedInstType_0::SimdShift            0      0.00%     52.80% # Number of instructions issued per FU type, per thread (Count)
system.cpu.statIssuedInstType_0::SimdShiftAcc            0      0.00%     52.80% # Number of instructions issued per FU type, per thread (Count)
system.cpu.statIssuedInstType_0::SimdDiv            0      0.00%     52.80% # Number of instructions issued per FU type, per thread (Count)
system.cpu.statIssuedInstType_0::SimdSqrt            0      0.00%     52.80% # Number of instructions issued per FU type, per thread (Count)
system.cpu.statIssuedInstType_0::SimdFloatAdd      1600820      2.45%     55.25% # Number of instructions issued per FU type, per thread (Count)
system.cpu.statIssuedInstType_0::SimdFloatAlu            0      0.00%     55.25% # Number of instructions issued per FU type, per thread (Count)
system.cpu.statIssuedInstType_0::SimdFloatCmp            0      0.00%     55.25% # Number of instructions issued per FU type, per thread (Count)
system.cpu.statIssuedInstType_0::SimdFloatCvt            0      0.00%     55.25% # Number of instructions issued per FU type, per thread (Count)
system.cpu.statIssuedInstType_0::SimdFloatDiv            0      0.00%     55.25% # Number of instructions issued per FU type, per thread (Count)
system.cpu.statIssuedInstType_0::SimdFloatMisc            0      0.00%     55.25% # Number of instructions issued per FU type, per thread (Count)
system.cpu.statIssuedInstType_0::SimdFloatMult      1576203      2.41%     57.66% # Number of instructions issued per FU type, per thread (Count)
system.cpu.statIssuedInstType_0::SimdFloatMultAcc            0      0.00%     57.66% # Number of instructions issued per FU type, per thread (Count)
system.cpu.statIssuedInstType_0::SimdFloatSqrt            0      0.00%     57.66% # Number of instructions issued per FU type, per thread (Count)
system.cpu.statIssuedInstType_0::SimdReduceAdd            0      0.00%     57.66% # Number of instructions issued per FU type, per thread (Count)
system.cpu.statIssuedInstType_0::SimdReduceAlu            0      0.00%     57.66% # Number of instructions issued per FU type, per thread (Count)
system.cpu.statIssuedInstType_0::SimdReduceCmp            0      0.00%     57.66% # Number of instructions issued per FU type, per thread (Count)
system.cpu.statIssuedInstType_0::SimdFloatReduceAdd            0      0.00%     57.66% # Number of instructions issued per FU type, per thread (Count)
system.cpu.statIssuedInstType_0::SimdFloatReduceCmp            0      0.00%     57.66% # Number of instructions issued per FU type, per thread (Count)
system.cpu.statIssuedInstType_0::SimdAes            0      0.00%     57.66% # Number of instructions issued per FU type, per thread (Count)
system.cpu.statIssuedInstType_0::SimdAesMix            0      0.00%     57.66% # Number of instructions issued per FU type, per thread (Count)
system.cpu.statIssuedInstType_0::SimdSha1Hash            0      0.00%     57.66% # Number of instructions issued per FU type, per thread (Count)
system.cpu.statIssuedInstType_0::SimdSha1Hash2            0      0.00%     57.66% # Number of instructions issued per FU type, per thread (Count)
system.cpu.statIssuedInstType_0::SimdSha256Hash            0      0.00%     57.66% # Number of instructions issued per FU type, per thread (Count)
system.cpu.statIssuedInstType_0::SimdSha256Hash2            0      0.00%     57.66% # Number of instructions issued per FU type, per thread (Count)
system.cpu.statIssuedInstType_0::SimdShaSigma2            0      0.00%     57.66% # Number of instructions issued per FU type, per thread (Count)
system.cpu.statIssuedInstType_0::SimdShaSigma3            0      0.00%     57.66% # Number of instructions issued per FU type, per thread (Count)
system.cpu.statIssuedInstType_0::SimdPredAlu            0      0.00%     57.66% # Number of instructions issued per FU type, per thread (Count)
system.cpu.statIssuedInstType_0::MemRead     14814437     22.67%     80.33% # Number of instructions issued per FU type, per thread (Count)
system.cpu.statIssuedInstType_0::MemWrite      1676755      2.57%     82.89% # Number of instructions issued per FU type, per thread (Count)
system.cpu.statIssuedInstType_0::FloatMemRead      7955553     12.17%     95.06% # Number of instructions issued per FU type, per thread (Count)
system.cpu.statIssuedInstType_0::FloatMemWrite      3226695      4.94%    100.00% # Number of instructions issued per FU type, per thread (Count)
system.cpu.statIssuedInstType_0::IprAccess            0      0.00%    100.00% # Number of instructions issued per FU type, per thread (Count)
system.cpu.statIssuedInstType_0::InstPrefetch            0      0.00%    100.00% # Number of instructions issued per FU type, per thread (Count)
system.cpu.statIssuedInstType_0::total       65358313                       # Number of instructions issued per FU type, per thread (Count)
system.cpu.issueRate                         0.671610                       # Inst issue rate ((Count/Cycle))
system.cpu.fuBusy                                1333                       # FU busy when requested (Count)
system.cpu.fuBusyRate                        0.000020                       # FU busy rate (busy events/executed inst) ((Count/Count))
system.cpu.intInstQueueReads                179392578                       # Number of integer instruction queue reads (Count)
system.cpu.intInstQueueWrites                43362803                       # Number of integer instruction queue writes (Count)
system.cpu.intInstQueueWakeupAccesses        41012019                       # Number of integer instruction queue wakeup accesses (Count)
system.cpu.fpInstQueueReads                  48623663                       # Number of floating instruction queue reads (Count)
system.cpu.fpInstQueueWrites                 23897749                       # Number of floating instruction queue writes (Count)
system.cpu.fpInstQueueWakeupAccesses         22685445                       # Number of floating instruction queue wakeup accesses (Count)
system.cpu.vecInstQueueReads                        0                       # Number of vector instruction queue reads (Count)
system.cpu.vecInstQueueWrites                       0                       # Number of vector instruction queue writes (Count)
system.cpu.vecInstQueueWakeupAccesses               0                       # Number of vector instruction queue wakeup accesses (Count)
system.cpu.intAluAccesses                    41047113                       # Number of integer alu accesses (Count)
system.cpu.fpAluAccesses                     24311853                       # Number of floating point alu accesses (Count)
system.cpu.vecAluAccesses                           0                       # Number of vector alu accesses (Count)
system.cpu.numInsts                          65307091                       # Number of executed instructions (Count)
system.cpu.numLoadInsts                      22744912                       # Number of load instructions executed (Count)
system.cpu.numSquashedInsts                     51222                       # Number of squashed instructions skipped in execute (Count)
system.cpu.numSwp                                   0                       # Number of swp insts executed (Count)
system.cpu.numNop                                   0                       # Number of nop insts executed (Count)
system.cpu.numRefs                           27648173                       # Number of memory reference insts executed (Count)
system.cpu.numBranches                        1652872                       # Number of branches executed (Count)
system.cpu.numStoreInsts                      4903261                       # Number of stores executed (Count)
system.cpu.numRate                           0.671084                       # Inst execution rate ((Count/Cycle))
system.cpu.timesIdled                             296                       # Number of times that the entire CPU went into an idle state and unscheduled itself (Count)
system.cpu.idleCycles                           17634                       # Total number of cycles that the CPU has spent unscheduled due to idling (Cycle)
system.cpu.committedInsts                    41897907                       # Number of Instructions Simulated (Count)
system.cpu.committedOps                      62838257                       # Number of Ops (including micro ops) Simulated (Count)
system.cpu.cpi                               2.322690                       # CPI: Cycles Per Instruction ((Cycle/Count))
system.cpu.totalCpi                          2.322690                       # CPI: Total CPI of All Threads ((Cycle/Count))
system.cpu.ipc                               0.430535                       # IPC: Instructions Per Cycle ((Count/Cycle))
system.cpu.totalIpc                          0.430535                       # IPC: Total IPC of All Threads ((Count/Cycle))
system.cpu.intRegfileReads                   63385935                       # Number of integer regfile reads (Count)
system.cpu.intRegfileWrites                  36055509                       # Number of integer regfile writes (Count)
system.cpu.fpRegfileReads                    12956585                       # Number of floating regfile reads (Count)
system.cpu.fpRegfileWrites                   19458821                       # Number of floating regfile writes (Count)
system.cpu.ccRegfileReads                     8138622                       # number of cc regfile reads (Count)
system.cpu.ccRegfileWrites                   16164664                       # number of cc regfile writes (Count)
system.cpu.miscRegfileReads                  31004882                       # number of misc regfile reads (Count)
system.cpu.MemDepUnit__0.insertedLoads       21652394                       # Number of loads inserted to the mem dependence unit. (Count)
system.cpu.MemDepUnit__0.insertedStores       5053930                       # Number of stores inserted to the mem dependence unit. (Count)
system.cpu.MemDepUnit__0.conflictingLoads     11593948                       # Number of conflicting loads. (Count)
system.cpu.MemDepUnit__0.conflictingStores      4959151                       # Number of conflicting stores. (Count)
system.cpu.MemDepUnit__1.insertedLoads              0                       # Number of loads inserted to the mem dependence unit. (Count)
system.cpu.MemDepUnit__1.insertedStores             0                       # Number of stores inserted to the mem dependence unit. (Count)
system.cpu.MemDepUnit__1.conflictingLoads            0                       # Number of conflicting loads. (Count)
system.cpu.MemDepUnit__1.conflictingStores            0                       # Number of conflicting stores. (Count)
system.cpu.MemDepUnit__2.insertedLoads              0                       # Number of loads inserted to the mem dependence unit. (Count)
system.cpu.MemDepUnit__2.insertedStores             0                       # Number of stores inserted to the mem dependence unit. (Count)
system.cpu.MemDepUnit__2.conflictingLoads            0                       # Number of conflicting loads. (Count)
system.cpu.MemDepUnit__2.conflictingStores            0                       # Number of conflicting stores. (Count)
system.cpu.MemDepUnit__3.insertedLoads              0                       # Number of loads inserted to the mem dependence unit. (Count)
system.cpu.MemDepUnit__3.insertedStores             0                       # Number of stores inserted to the mem dependence unit. (Count)
system.cpu.MemDepUnit__3.conflictingLoads            0                       # Number of conflicting loads. (Count)
system.cpu.MemDepUnit__3.conflictingStores            0                       # Number of conflicting stores. (Count)
system.cpu.branchPred.lookups                 1729795                       # Number of BP lookups (Count)
system.cpu.branchPred.condPredicted           1703506                       # Number of conditional branches predicted (Count)
system.cpu.branchPred.condIncorrect             25454                       # Number of conditional branches incorrect (Count)
system.cpu.branchPred.BTBLookups              1727271                       # Number of BTB lookups (Count)
system.cpu.branchPred.BTBUpdates                  728                       # Number of BTB updates (Count)
system.cpu.branchPred.BTBHits                 1726503                       # Number of BTB hits (Count)
system.cpu.branchPred.BTBHitRatio            0.999555                       # BTB Hit Ratio (Ratio)
system.cpu.branchPred.RASUsed                     271                       # Number of times the RAS was used to get a target. (Count)
system.cpu.branchPred.RASIncorrect                  0                       # Number of incorrect RAS predictions. (Count)
system.cpu.branchPred.indirectLookups             327                       # Number of indirect predictor lookups. (Count)
system.cpu.branchPred.indirectHits                 16                       # Number of indirect target hits. (Count)
system.cpu.branchPred.indirectMisses              311                       # Number of indirect misses. (Count)
system.cpu.branchPred.indirectMispredicted          107                       # Number of mispredicted indirect branches. (Count)
system.cpu.commit.commitSquashedInsts         2210503                       # The number of squashed insts skipped by commit (Count)
system.cpu.commit.branchMispredicts             25328                       # The number of times a branch was mispredicted (Count)
system.cpu.commit.numCommittedDist::samples     97005211                       # Number of insts commited each cycle (Count)
system.cpu.commit.numCommittedDist::mean     0.647782                       # Number of insts commited each cycle (Count)
system.cpu.commit.numCommittedDist::stdev     1.429917                       # Number of insts commited each cycle (Count)
system.cpu.commit.numCommittedDist::underflows            0      0.00%      0.00% # Number of insts commited each cycle (Count)
system.cpu.commit.numCommittedDist::0        66690265     68.75%     68.75% # Number of insts commited each cycle (Count)
system.cpu.commit.numCommittedDist::1        19023379     19.61%     88.36% # Number of insts commited each cycle (Count)
system.cpu.commit.numCommittedDist::2         3181102      3.28%     91.64% # Number of insts commited each cycle (Count)
system.cpu.commit.numCommittedDist::3         4764978      4.91%     96.55% # Number of insts commited each cycle (Count)
system.cpu.commit.numCommittedDist::4           91259      0.09%     96.65% # Number of insts commited each cycle (Count)
system.cpu.commit.numCommittedDist::5           33902      0.03%     96.68% # Number of insts commited each cycle (Count)
system.cpu.commit.numCommittedDist::6         1549295      1.60%     98.28% # Number of insts commited each cycle (Count)
system.cpu.commit.numCommittedDist::7           40824      0.04%     98.32% # Number of insts commited each cycle (Count)
system.cpu.commit.numCommittedDist::8         1630207      1.68%    100.00% # Number of insts commited each cycle (Count)
system.cpu.commit.numCommittedDist::overflows            0      0.00%    100.00% # Number of insts commited each cycle (Count)
system.cpu.commit.numCommittedDist::min_value            0                       # Number of insts commited each cycle (Count)
system.cpu.commit.numCommittedDist::max_value            8                       # Number of insts commited each cycle (Count)
system.cpu.commit.numCommittedDist::total     97005211                       # Number of insts commited each cycle (Count)
system.cpu.commit.instsCommitted             41897907                       # Number of instructions committed (Count)
system.cpu.commit.opsCommitted               62838257                       # Number of ops (including micro ops) committed (Count)
system.cpu.commit.memRefs                    25811590                       # Number of memory references committed (Count)
system.cpu.commit.loads                      20909411                       # Number of loads committed (Count)
system.cpu.commit.amos                              0                       # Number of atomic instructions committed (Count)
system.cpu.commit.membars                           0                       # Number of memory barriers committed (Count)
system.cpu.commit.branches                    1651598                       # Number of branches committed (Count)
system.cpu.commit.vectorInstructions                0                       # Number of committed Vector instructions. (Count)
system.cpu.commit.floating                   22362291                       # Number of committed floating point instructions. (Count)
system.cpu.commit.integer                    50056188                       # Number of committed integer instructions. (Count)
system.cpu.commit.functionCalls                   149                       # Number of function calls committed. (Count)
system.cpu.commit.committedInstType_0::No_OpClass          189      0.00%      0.00% # Class of committed instruction (Count)
system.cpu.commit.committedInstType_0::IntAlu     24244642     38.58%     38.58% # Class of committed instruction (Count)
system.cpu.commit.committedInstType_0::IntMult            5      0.00%     38.58% # Class of committed instruction (Count)
system.cpu.commit.committedInstType_0::IntDiv           21      0.00%     38.58% # Class of committed instruction (Count)
system.cpu.commit.committedInstType_0::FloatAdd      9506253     15.13%     53.71% # Class of committed instruction (Count)
system.cpu.commit.committedInstType_0::FloatCmp            0      0.00%     53.71% # Class of committed instruction (Count)
system.cpu.commit.committedInstType_0::FloatCvt            0      0.00%     53.71% # Class of committed instruction (Count)
system.cpu.commit.committedInstType_0::FloatMult            0      0.00%     53.71% # Class of committed instruction (Count)
system.cpu.commit.committedInstType_0::FloatMultAcc            0      0.00%     53.71% # Class of committed instruction (Count)
system.cpu.commit.committedInstType_0::FloatDiv            0      0.00%     53.71% # Class of committed instruction (Count)
system.cpu.commit.committedInstType_0::FloatMisc            0      0.00%     53.71% # Class of committed instruction (Count)
system.cpu.commit.committedInstType_0::FloatSqrt            0      0.00%     53.71% # Class of committed instruction (Count)
system.cpu.commit.committedInstType_0::SimdAdd            0      0.00%     53.71% # Class of committed instruction (Count)
system.cpu.commit.committedInstType_0::SimdAddAcc            0      0.00%     53.71% # Class of committed instruction (Count)
system.cpu.commit.committedInstType_0::SimdAlu        98398      0.16%     53.87% # Class of committed instruction (Count)
system.cpu.commit.committedInstType_0::SimdCmp            0      0.00%     53.87% # Class of committed instruction (Count)
system.cpu.commit.committedInstType_0::SimdCvt           46      0.00%     53.87% # Class of committed instruction (Count)
system.cpu.commit.committedInstType_0::SimdMisc          215      0.00%     53.87% # Class of committed instruction (Count)
system.cpu.commit.committedInstType_0::SimdMult            0      0.00%     53.87% # Class of committed instruction (Count)
system.cpu.commit.committedInstType_0::SimdMultAcc            0      0.00%     53.87% # Class of committed instruction (Count)
system.cpu.commit.committedInstType_0::SimdShift            0      0.00%     53.87% # Class of committed instruction (Count)
system.cpu.commit.committedInstType_0::SimdShiftAcc            0      0.00%     53.87% # Class of committed instruction (Count)
system.cpu.commit.committedInstType_0::SimdDiv            0      0.00%     53.87% # Class of committed instruction (Count)
system.cpu.commit.committedInstType_0::SimdSqrt            0      0.00%     53.87% # Class of committed instruction (Count)
system.cpu.commit.committedInstType_0::SimdFloatAdd      1600737      2.55%     56.42% # Class of committed instruction (Count)
system.cpu.commit.committedInstType_0::SimdFloatAlu            0      0.00%     56.42% # Class of committed instruction (Count)
system.cpu.commit.committedInstType_0::SimdFloatCmp            0      0.00%     56.42% # Class of committed instruction (Count)
system.cpu.commit.committedInstType_0::SimdFloatCvt            0      0.00%     56.42% # Class of committed instruction (Count)
system.cpu.commit.committedInstType_0::SimdFloatDiv            0      0.00%     56.42% # Class of committed instruction (Count)
system.cpu.commit.committedInstType_0::SimdFloatMisc            0      0.00%     56.42% # Class of committed instruction (Count)
system.cpu.commit.committedInstType_0::SimdFloatMult      1576161      2.51%     58.92% # Class of committed instruction (Count)
system.cpu.commit.committedInstType_0::SimdFloatMultAcc            0      0.00%     58.92% # Class of committed instruction (Count)
system.cpu.commit.committedInstType_0::SimdFloatSqrt            0      0.00%     58.92% # Class of committed instruction (Count)
system.cpu.commit.committedInstType_0::SimdReduceAdd            0      0.00%     58.92% # Class of committed instruction (Count)
system.cpu.commit.committedInstType_0::SimdReduceAlu            0      0.00%     58.92% # Class of committed instruction (Count)
system.cpu.commit.committedInstType_0::SimdReduceCmp            0      0.00%     58.92% # Class of committed instruction (Count)
system.cpu.commit.committedInstType_0::SimdFloatReduceAdd            0      0.00%     58.92% # Class of committed instruction (Count)
system.cpu.commit.committedInstType_0::SimdFloatReduceCmp            0      0.00%     58.92% # Class of committed instruction (Count)
system.cpu.commit.committedInstType_0::SimdAes            0      0.00%     58.92% # Class of committed instruction (Count)
system.cpu.commit.committedInstType_0::SimdAesMix            0      0.00%     58.92% # Class of committed instruction (Count)
system.cpu.commit.committedInstType_0::SimdSha1Hash            0      0.00%     58.92% # Class of committed instruction (Count)
system.cpu.commit.committedInstType_0::SimdSha1Hash2            0      0.00%     58.92% # Class of committed instruction (Count)
system.cpu.commit.committedInstType_0::SimdSha256Hash            0      0.00%     58.92% # Class of committed instruction (Count)
system.cpu.commit.committedInstType_0::SimdSha256Hash2            0      0.00%     58.92% # Class of committed instruction (Count)
system.cpu.commit.committedInstType_0::SimdShaSigma2            0      0.00%     58.92% # Class of committed instruction (Count)
system.cpu.commit.committedInstType_0::SimdShaSigma3            0      0.00%     58.92% # Class of committed instruction (Count)
system.cpu.commit.committedInstType_0::SimdPredAlu            0      0.00%     58.92% # Class of committed instruction (Count)
system.cpu.commit.committedInstType_0::MemRead     14555573     23.16%     82.09% # Class of committed instruction (Count)
system.cpu.commit.committedInstType_0::MemWrite      1675675      2.67%     84.75% # Class of committed instruction (Count)
system.cpu.commit.committedInstType_0::FloatMemRead      6353838     10.11%     94.87% # Class of committed instruction (Count)
system.cpu.commit.committedInstType_0::FloatMemWrite      3226504      5.13%    100.00% # Class of committed instruction (Count)
system.cpu.commit.committedInstType_0::IprAccess            0      0.00%    100.00% # Class of committed instruction (Count)
system.cpu.commit.committedInstType_0::InstPrefetch            0      0.00%    100.00% # Class of committed instruction (Count)
system.cpu.commit.committedInstType_0::total     62838257                       # Class of committed instruction (Count)
system.cpu.commit.commitEligibleSamples       1630207                       # number cycles where commit BW limit reached (Cycle)
system.cpu.dcache.demandHits::cpu.data       19850399                       # number of demand (read+write) hits (Count)
system.cpu.dcache.demandHits::total          19850399                       # number of demand (read+write) hits (Count)
system.cpu.dcache.overallHits::cpu.data      19850399                       # number of overall hits (Count)
system.cpu.dcache.overallHits::total         19850399                       # number of overall hits (Count)
system.cpu.dcache.demandMisses::cpu.data      1304529                       # number of demand (read+write) misses (Count)
system.cpu.dcache.demandMisses::total         1304529                       # number of demand (read+write) misses (Count)
system.cpu.dcache.overallMisses::cpu.data      1304529                       # number of overall misses (Count)
system.cpu.dcache.overallMisses::total        1304529                       # number of overall misses (Count)
system.cpu.dcache.demandMissLatency::cpu.data  49441679999                       # number of demand (read+write) miss ticks (Tick)
system.cpu.dcache.demandMissLatency::total  49441679999                       # number of demand (read+write) miss ticks (Tick)
system.cpu.dcache.overallMissLatency::cpu.data  49441679999                       # number of overall miss ticks (Tick)
system.cpu.dcache.overallMissLatency::total  49441679999                       # number of overall miss ticks (Tick)
system.cpu.dcache.demandAccesses::cpu.data     21154928                       # number of demand (read+write) accesses (Count)
system.cpu.dcache.demandAccesses::total      21154928                       # number of demand (read+write) accesses (Count)
system.cpu.dcache.overallAccesses::cpu.data     21154928                       # number of overall (read+write) accesses (Count)
system.cpu.dcache.overallAccesses::total     21154928                       # number of overall (read+write) accesses (Count)
system.cpu.dcache.demandMissRate::cpu.data     0.061665                       # miss rate for demand accesses (Ratio)
system.cpu.dcache.demandMissRate::total      0.061665                       # miss rate for demand accesses (Ratio)
system.cpu.dcache.overallMissRate::cpu.data     0.061665                       # miss rate for overall accesses (Ratio)
system.cpu.dcache.overallMissRate::total     0.061665                       # miss rate for overall accesses (Ratio)
system.cpu.dcache.demandAvgMissLatency::cpu.data 37900.023686                       # average overall miss latency in ticks ((Tick/Count))
system.cpu.dcache.demandAvgMissLatency::total 37900.023686                       # average overall miss latency in ticks ((Tick/Count))
system.cpu.dcache.overallAvgMissLatency::cpu.data 37900.023686                       # average overall miss latency ((Tick/Count))
system.cpu.dcache.overallAvgMissLatency::total 37900.023686                       # average overall miss latency ((Tick/Count))
system.cpu.dcache.blockedCycles::no_mshrs       111456                       # number of cycles access was blocked (Cycle)
system.cpu.dcache.blockedCycles::no_targets            0                       # number of cycles access was blocked (Cycle)
system.cpu.dcache.blockedCauses::no_mshrs         7886                       # number of times access was blocked (Count)
system.cpu.dcache.blockedCauses::no_targets            0                       # number of times access was blocked (Count)
system.cpu.dcache.avgBlocked::no_mshrs      14.133401                       # average number of cycles each access was blocked ((Cycle/Count))
system.cpu.dcache.avgBlocked::no_targets          nan                       # average number of cycles each access was blocked ((Cycle/Count))
system.cpu.dcache.writebacks::writebacks         3458                       # number of writebacks (Count)
system.cpu.dcache.writebacks::total              3458                       # number of writebacks (Count)
system.cpu.dcache.demandMshrHits::cpu.data         5903                       # number of demand (read+write) MSHR hits (Count)
system.cpu.dcache.demandMshrHits::total          5903                       # number of demand (read+write) MSHR hits (Count)
system.cpu.dcache.overallMshrHits::cpu.data         5903                       # number of overall MSHR hits (Count)
system.cpu.dcache.overallMshrHits::total         5903                       # number of overall MSHR hits (Count)
system.cpu.dcache.demandMshrMisses::cpu.data      1298626                       # number of demand (read+write) MSHR misses (Count)
system.cpu.dcache.demandMshrMisses::total      1298626                       # number of demand (read+write) MSHR misses (Count)
system.cpu.dcache.overallMshrMisses::cpu.data      1298626                       # number of overall MSHR misses (Count)
system.cpu.dcache.overallMshrMisses::cpu.dcache.prefetcher      2939893                       # number of overall MSHR misses (Count)
system.cpu.dcache.overallMshrMisses::total      4238519                       # number of overall MSHR misses (Count)
system.cpu.dcache.demandMshrMissLatency::cpu.data  46605735999                       # number of demand (read+write) MSHR miss ticks (Tick)
system.cpu.dcache.demandMshrMissLatency::total  46605735999                       # number of demand (read+write) MSHR miss ticks (Tick)
system.cpu.dcache.overallMshrMissLatency::cpu.data  46605735999                       # number of overall MSHR miss ticks (Tick)
system.cpu.dcache.overallMshrMissLatency::cpu.dcache.prefetcher 100462579482                       # number of overall MSHR miss ticks (Tick)
system.cpu.dcache.overallMshrMissLatency::total 147068315481                       # number of overall MSHR miss ticks (Tick)
system.cpu.dcache.demandMshrMissRate::cpu.data     0.061386                       # mshr miss ratio for demand accesses (Ratio)
system.cpu.dcache.demandMshrMissRate::total     0.061386                       # mshr miss ratio for demand accesses (Ratio)
system.cpu.dcache.overallMshrMissRate::cpu.data     0.061386                       # mshr miss ratio for overall accesses (Ratio)
system.cpu.dcache.overallMshrMissRate::cpu.dcache.prefetcher          inf                       # mshr miss ratio for overall accesses (Ratio)
system.cpu.dcache.overallMshrMissRate::total     0.200356                       # mshr miss ratio for overall accesses (Ratio)
system.cpu.dcache.demandAvgMshrMissLatency::cpu.data 35888.497534                       # average overall mshr miss latency ((Tick/Count))
system.cpu.dcache.demandAvgMshrMissLatency::total 35888.497534                       # average overall mshr miss latency ((Tick/Count))
system.cpu.dcache.overallAvgMshrMissLatency::cpu.data 35888.497534                       # average overall mshr miss latency ((Tick/Count))
system.cpu.dcache.overallAvgMshrMissLatency::cpu.dcache.prefetcher 34172.189084                       # average overall mshr miss latency ((Tick/Count))
system.cpu.dcache.overallAvgMshrMissLatency::total 34698.043227                       # average overall mshr miss latency ((Tick/Count))
system.cpu.dcache.replacements                4237495                       # number of replacements (Count)
system.cpu.dcache.HardPFReq.mshrMisses::cpu.dcache.prefetcher      2939893                       # number of HardPFReq MSHR misses (Count)
system.cpu.dcache.HardPFReq.mshrMisses::total      2939893                       # number of HardPFReq MSHR misses (Count)
system.cpu.dcache.HardPFReq.mshrMissLatency::cpu.dcache.prefetcher 100462579482                       # number of HardPFReq MSHR miss ticks (Tick)
system.cpu.dcache.HardPFReq.mshrMissLatency::total 100462579482                       # number of HardPFReq MSHR miss ticks (Tick)
system.cpu.dcache.HardPFReq.mshrMissRate::cpu.dcache.prefetcher          inf                       # mshr miss rate for HardPFReq accesses (Ratio)
system.cpu.dcache.HardPFReq.mshrMissRate::total          inf                       # mshr miss rate for HardPFReq accesses (Ratio)
system.cpu.dcache.HardPFReq.avgMshrMissLatency::cpu.dcache.prefetcher 34172.189084                       # average HardPFReq mshr miss latency ((Tick/Count))
system.cpu.dcache.HardPFReq.avgMshrMissLatency::total 34172.189084                       # average HardPFReq mshr miss latency ((Tick/Count))
system.cpu.dcache.ReadReq.hits::cpu.data     14948325                       # number of ReadReq hits (Count)
system.cpu.dcache.ReadReq.hits::total        14948325                       # number of ReadReq hits (Count)
system.cpu.dcache.ReadReq.misses::cpu.data      1304423                       # number of ReadReq misses (Count)
system.cpu.dcache.ReadReq.misses::total       1304423                       # number of ReadReq misses (Count)
system.cpu.dcache.ReadReq.missLatency::cpu.data  49433693000                       # number of ReadReq miss ticks (Tick)
system.cpu.dcache.ReadReq.missLatency::total  49433693000                       # number of ReadReq miss ticks (Tick)
system.cpu.dcache.ReadReq.accesses::cpu.data     16252748                       # number of ReadReq accesses(hits+misses) (Count)
system.cpu.dcache.ReadReq.accesses::total     16252748                       # number of ReadReq accesses(hits+misses) (Count)
system.cpu.dcache.ReadReq.missRate::cpu.data     0.080259                       # miss rate for ReadReq accesses (Ratio)
system.cpu.dcache.ReadReq.missRate::total     0.080259                       # miss rate for ReadReq accesses (Ratio)
system.cpu.dcache.ReadReq.avgMissLatency::cpu.data 37896.980504                       # average ReadReq miss latency ((Tick/Count))
system.cpu.dcache.ReadReq.avgMissLatency::total 37896.980504                       # average ReadReq miss latency ((Tick/Count))
system.cpu.dcache.ReadReq.mshrHits::cpu.data         5858                       # number of ReadReq MSHR hits (Count)
system.cpu.dcache.ReadReq.mshrHits::total         5858                       # number of ReadReq MSHR hits (Count)
system.cpu.dcache.ReadReq.mshrMisses::cpu.data      1298565                       # number of ReadReq MSHR misses (Count)
system.cpu.dcache.ReadReq.mshrMisses::total      1298565                       # number of ReadReq MSHR misses (Count)
system.cpu.dcache.ReadReq.mshrMissLatency::cpu.data  46600303000                       # number of ReadReq MSHR miss ticks (Tick)
system.cpu.dcache.ReadReq.mshrMissLatency::total  46600303000                       # number of ReadReq MSHR miss ticks (Tick)
system.cpu.dcache.ReadReq.mshrMissRate::cpu.data     0.079898                       # mshr miss rate for ReadReq accesses (Ratio)
system.cpu.dcache.ReadReq.mshrMissRate::total     0.079898                       # mshr miss rate for ReadReq accesses (Ratio)
system.cpu.dcache.ReadReq.avgMshrMissLatency::cpu.data 35885.999546                       # average ReadReq mshr miss latency ((Tick/Count))
system.cpu.dcache.ReadReq.avgMshrMissLatency::total 35885.999546                       # average ReadReq mshr miss latency ((Tick/Count))
system.cpu.dcache.WriteReq.hits::cpu.data      4902074                       # number of WriteReq hits (Count)
system.cpu.dcache.WriteReq.hits::total        4902074                       # number of WriteReq hits (Count)
system.cpu.dcache.WriteReq.misses::cpu.data          106                       # number of WriteReq misses (Count)
system.cpu.dcache.WriteReq.misses::total          106                       # number of WriteReq misses (Count)
system.cpu.dcache.WriteReq.missLatency::cpu.data      7986999                       # number of WriteReq miss ticks (Tick)
system.cpu.dcache.WriteReq.missLatency::total      7986999                       # number of WriteReq miss ticks (Tick)
system.cpu.dcache.WriteReq.accesses::cpu.data      4902180                       # number of WriteReq accesses(hits+misses) (Count)
system.cpu.dcache.WriteReq.accesses::total      4902180                       # number of WriteReq accesses(hits+misses) (Count)
system.cpu.dcache.WriteReq.missRate::cpu.data     0.000022                       # miss rate for WriteReq accesses (Ratio)
system.cpu.dcache.WriteReq.missRate::total     0.000022                       # miss rate for WriteReq accesses (Ratio)
system.cpu.dcache.WriteReq.avgMissLatency::cpu.data 75349.047170                       # average WriteReq miss latency ((Tick/Count))
system.cpu.dcache.WriteReq.avgMissLatency::total 75349.047170                       # average WriteReq miss latency ((Tick/Count))
system.cpu.dcache.WriteReq.mshrHits::cpu.data           45                       # number of WriteReq MSHR hits (Count)
system.cpu.dcache.WriteReq.mshrHits::total           45                       # number of WriteReq MSHR hits (Count)
system.cpu.dcache.WriteReq.mshrMisses::cpu.data           61                       # number of WriteReq MSHR misses (Count)
system.cpu.dcache.WriteReq.mshrMisses::total           61                       # number of WriteReq MSHR misses (Count)
system.cpu.dcache.WriteReq.mshrMissLatency::cpu.data      5432999                       # number of WriteReq MSHR miss ticks (Tick)
system.cpu.dcache.WriteReq.mshrMissLatency::total      5432999                       # number of WriteReq MSHR miss ticks (Tick)
system.cpu.dcache.WriteReq.mshrMissRate::cpu.data     0.000012                       # mshr miss rate for WriteReq accesses (Ratio)
system.cpu.dcache.WriteReq.mshrMissRate::total     0.000012                       # mshr miss rate for WriteReq accesses (Ratio)
system.cpu.dcache.WriteReq.avgMshrMissLatency::cpu.data 89065.557377                       # average WriteReq mshr miss latency ((Tick/Count))
system.cpu.dcache.WriteReq.avgMshrMissLatency::total 89065.557377                       # average WriteReq mshr miss latency ((Tick/Count))
system.cpu.dcache.power_state.pwrStateResidencyTicks::UNDEFINED  97315866000                       # Cumulative time (in ticks) in various power states (Tick)
system.cpu.dcache.prefetcher.demandMshrMisses      1298626                       # demands not covered by prefetchs (Count)
system.cpu.dcache.prefetcher.pfIssued         3789513                       # number of hwpf issued (Count)
system.cpu.dcache.prefetcher.pfUnused         2592688                       # number of HardPF blocks evicted w/o reference (Count)
system.cpu.dcache.prefetcher.pfUseful          341053                       # number of useful prefetch (Count)
system.cpu.dcache.prefetcher.pfUsefulButMiss            0                       # number of hit on prefetch but cache block is not in an usable state (Count)
system.cpu.dcache.prefetcher.accuracy        0.089999                       # accuracy of the prefetcher (Count)
system.cpu.dcache.prefetcher.coverage        0.208000                       # coverage brought by this prefetcher (Count)
system.cpu.dcache.prefetcher.pfHitInCache       848347                       # number of prefetches hitting in cache (Count)
system.cpu.dcache.prefetcher.pfHitInMSHR         1224                       # number of prefetches hitting in a MSHR (Count)
system.cpu.dcache.prefetcher.pfHitInWB             49                       # number of prefetches hit in the Write Buffer (Count)
system.cpu.dcache.prefetcher.pfLate            849620                       # number of late prefetches (hitting in cache, MSHR or WB) (Count)
system.cpu.dcache.prefetcher.pfIdentified      3810734                       # number of prefetch candidates identified (Count)
system.cpu.dcache.prefetcher.pfBufferHit        12914                       # number of redundant prefetches already in prefetch queue (Count)
system.cpu.dcache.prefetcher.pfInCache              0                       # number of redundant prefetches already in cache/mshr dropped (Count)
system.cpu.dcache.prefetcher.pfRemovedDemand         5431                       # number of prefetches dropped due to a demand for the same address (Count)
system.cpu.dcache.prefetcher.pfRemovedFull          739                       # number of prefetches dropped due to prefetch queue size (Count)
system.cpu.dcache.prefetcher.pfSpanPage        500861                       # number of prefetches that crossed the page (Count)
system.cpu.dcache.prefetcher.pfUsefulSpanPage            0                       # number of prefetches that is useful and crossed the page (Count)
system.cpu.dcache.prefetcher.ampm.power_state.pwrStateResidencyTicks::UNDEFINED  97315866000                       # Cumulative time (in ticks) in various power states (Tick)
system.cpu.dcache.prefetcher.power_state.pwrStateResidencyTicks::UNDEFINED  97315866000                       # Cumulative time (in ticks) in various power states (Tick)
system.cpu.dcache.tags.tagsInUse          1023.217617                       # Average ticks per tags in use ((Tick/Count))
system.cpu.dcache.tags.totalRefs             24088918                       # Total number of references to valid blocks. (Count)
system.cpu.dcache.tags.sampledRefs            4238519                       # Sample count of references to valid blocks. (Count)
system.cpu.dcache.tags.avgRefs               5.683334                       # Average number of references to valid blocks. ((Count/Count))
system.cpu.dcache.tags.warmupTick              222000                       # The tick when the warmup percentage was hit. (Tick)
system.cpu.dcache.tags.occupancies::cpu.data   321.840727                       # Average occupied blocks per tick, per requestor ((Count/Tick))
system.cpu.dcache.tags.occupancies::cpu.dcache.prefetcher   701.376890                       # Average occupied blocks per tick, per requestor ((Count/Tick))
system.cpu.dcache.tags.avgOccs::cpu.data     0.314298                       # Average percentage of cache occupancy ((Ratio/Tick))
system.cpu.dcache.tags.avgOccs::cpu.dcache.prefetcher     0.684938                       # Average percentage of cache occupancy ((Ratio/Tick))
system.cpu.dcache.tags.avgOccs::total        0.999236                       # Average percentage of cache occupancy ((Ratio/Tick))
system.cpu.dcache.tags.occupanciesTaskId::1022          697                       # Occupied blocks per task id (Count)
system.cpu.dcache.tags.occupanciesTaskId::1024          327                       # Occupied blocks per task id (Count)
system.cpu.dcache.tags.ageTaskId_1022::0          250                       # Occupied blocks per task id, per block age (Count)
system.cpu.dcache.tags.ageTaskId_1022::1          443                       # Occupied blocks per task id, per block age (Count)
system.cpu.dcache.tags.ageTaskId_1022::2            4                       # Occupied blocks per task id, per block age (Count)
system.cpu.dcache.tags.ageTaskId_1024::0          106                       # Occupied blocks per task id, per block age (Count)
system.cpu.dcache.tags.ageTaskId_1024::1          217                       # Occupied blocks per task id, per block age (Count)
system.cpu.dcache.tags.ageTaskId_1024::2            2                       # Occupied blocks per task id, per block age (Count)
system.cpu.dcache.tags.ageTaskId_1024::3            1                       # Occupied blocks per task id, per block age (Count)
system.cpu.dcache.tags.ageTaskId_1024::4            1                       # Occupied blocks per task id, per block age (Count)
system.cpu.dcache.tags.ratioOccsTaskId::1022     0.680664                       # Ratio of occupied blocks and all blocks, per task id (Ratio)
system.cpu.dcache.tags.ratioOccsTaskId::1024     0.319336                       # Ratio of occupied blocks and all blocks, per task id (Ratio)
system.cpu.dcache.tags.tagAccesses           46548375                       # Number of tag accesses (Count)
system.cpu.dcache.tags.dataAccesses          46548375                       # Number of data accesses (Count)
system.cpu.dcache.tags.power_state.pwrStateResidencyTicks::UNDEFINED  97315866000                       # Cumulative time (in ticks) in various power states (Tick)
system.cpu.decode.idleCycles                  2557616                       # Number of cycles decode is idle (Cycle)
system.cpu.decode.blockedCycles              86487305                       # Number of cycles decode is blocked (Cycle)
system.cpu.decode.runCycles                    862340                       # Number of cycles decode is running (Cycle)
system.cpu.decode.unblockCycles               7365027                       # Number of cycles decode is unblocking (Cycle)
system.cpu.decode.squashCycles                  25945                       # Number of cycles decode is squashing (Cycle)
system.cpu.decode.branchResolved              1701641                       # Number of times decode resolved a branch (Count)
system.cpu.decode.branchMispred                   240                       # Number of times decode detected a branch misprediction (Count)
system.cpu.decode.decodedInsts               65244534                       # Number of instructions handled by decode (Count)
system.cpu.decode.squashedInsts                  1132                       # Number of squashed instructions handled by decode (Count)
system.cpu.dtb_walker_cache.blockedCycles::no_mshrs            0                       # number of cycles access was blocked (Cycle)
system.cpu.dtb_walker_cache.blockedCycles::no_targets            0                       # number of cycles access was blocked (Cycle)
system.cpu.dtb_walker_cache.blockedCauses::no_mshrs            0                       # number of times access was blocked (Count)
system.cpu.dtb_walker_cache.blockedCauses::no_targets            0                       # number of times access was blocked (Count)
system.cpu.dtb_walker_cache.avgBlocked::no_mshrs          nan                       # average number of cycles each access was blocked ((Cycle/Count))
system.cpu.dtb_walker_cache.avgBlocked::no_targets          nan                       # average number of cycles each access was blocked ((Cycle/Count))
system.cpu.dtb_walker_cache.replacements            0                       # number of replacements (Count)
system.cpu.dtb_walker_cache.power_state.pwrStateResidencyTicks::UNDEFINED  97315866000                       # Cumulative time (in ticks) in various power states (Tick)
system.cpu.dtb_walker_cache.tags.tagsInUse            0                       # Average ticks per tags in use ((Tick/Count))
system.cpu.dtb_walker_cache.tags.totalRefs            0                       # Total number of references to valid blocks. (Count)
system.cpu.dtb_walker_cache.tags.sampledRefs            0                       # Sample count of references to valid blocks. (Count)
system.cpu.dtb_walker_cache.tags.avgRefs          nan                       # Average number of references to valid blocks. ((Count/Count))
system.cpu.dtb_walker_cache.tags.warmupTick            0                       # The tick when the warmup percentage was hit. (Tick)
system.cpu.dtb_walker_cache.tags.tagAccesses            0                       # Number of tag accesses (Count)
system.cpu.dtb_walker_cache.tags.dataAccesses            0                       # Number of data accesses (Count)
system.cpu.dtb_walker_cache.tags.power_state.pwrStateResidencyTicks::UNDEFINED  97315866000                       # Cumulative time (in ticks) in various power states (Tick)
system.cpu.fetch.icacheStallCycles            5164092                       # Number of cycles fetch is stalled on an Icache miss (Cycle)
system.cpu.fetch.insts                       44227277                       # Number of instructions fetch has processed (Count)
system.cpu.fetch.branches                     1729795                       # Number of branches that fetch encountered (Count)
system.cpu.fetch.predictedBranches            1726790                       # Number of branches that fetch has predicted taken (Count)
system.cpu.fetch.cycles                      92107098                       # Number of cycles fetch has run and was not squashing or blocked (Cycle)
system.cpu.fetch.squashCycles                   52350                       # Number of cycles fetch has spent squashing (Cycle)
system.cpu.fetch.miscStallCycles                  118                       # Number of cycles fetch has spent waiting on interrupts, or bad addresses, or out of MSHRs (Cycle)
system.cpu.fetch.pendingTrapStallCycles           674                       # Number of stall cycles due to pending traps (Cycle)
system.cpu.fetch.icacheWaitRetryStallCycles           76                       # Number of stall cycles due to full MSHR (Cycle)
system.cpu.fetch.cacheLines                   5128825                       # Number of cache lines fetched (Count)
system.cpu.fetch.icacheSquashes                   883                       # Number of outstanding Icache misses that were squashed (Count)
system.cpu.fetch.nisnDist::samples           97298233                       # Number of instructions fetched each cycle (Total) (Count)
system.cpu.fetch.nisnDist::mean              0.680490                       # Number of instructions fetched each cycle (Total) (Count)
system.cpu.fetch.nisnDist::stdev             1.990721                       # Number of instructions fetched each cycle (Total) (Count)
system.cpu.fetch.nisnDist::underflows               0      0.00%      0.00% # Number of instructions fetched each cycle (Total) (Count)
system.cpu.fetch.nisnDist::0                 84924698     87.28%     87.28% # Number of instructions fetched each cycle (Total) (Count)
system.cpu.fetch.nisnDist::1                  1011396      1.04%     88.32% # Number of instructions fetched each cycle (Total) (Count)
system.cpu.fetch.nisnDist::2                  1203483      1.24%     89.56% # Number of instructions fetched each cycle (Total) (Count)
system.cpu.fetch.nisnDist::3                   985100      1.01%     90.57% # Number of instructions fetched each cycle (Total) (Count)
system.cpu.fetch.nisnDist::4                  2092725      2.15%     92.72% # Number of instructions fetched each cycle (Total) (Count)
system.cpu.fetch.nisnDist::5                   863712      0.89%     93.61% # Number of instructions fetched each cycle (Total) (Count)
system.cpu.fetch.nisnDist::6                   912864      0.94%     94.55% # Number of instructions fetched each cycle (Total) (Count)
system.cpu.fetch.nisnDist::7                   763837      0.79%     95.33% # Number of instructions fetched each cycle (Total) (Count)
system.cpu.fetch.nisnDist::8                  4540418      4.67%    100.00% # Number of instructions fetched each cycle (Total) (Count)
system.cpu.fetch.nisnDist::overflows                0      0.00%    100.00% # Number of instructions fetched each cycle (Total) (Count)
system.cpu.fetch.nisnDist::min_value                0                       # Number of instructions fetched each cycle (Total) (Count)
system.cpu.fetch.nisnDist::max_value                8                       # Number of instructions fetched each cycle (Total) (Count)
system.cpu.fetch.nisnDist::total             97298233                       # Number of instructions fetched each cycle (Total) (Count)
system.cpu.fetch.branchRate                  0.017775                       # Number of branch fetches per cycle (Ratio)
system.cpu.fetch.rate                        0.454471                       # Number of inst fetches per cycle ((Count/Cycle))
system.cpu.icache.demandHits::cpu.inst        5128220                       # number of demand (read+write) hits (Count)
system.cpu.icache.demandHits::total           5128220                       # number of demand (read+write) hits (Count)
system.cpu.icache.overallHits::cpu.inst       5128220                       # number of overall hits (Count)
system.cpu.icache.overallHits::total          5128220                       # number of overall hits (Count)
system.cpu.icache.demandMisses::cpu.inst          605                       # number of demand (read+write) misses (Count)
system.cpu.icache.demandMisses::total             605                       # number of demand (read+write) misses (Count)
system.cpu.icache.overallMisses::cpu.inst          605                       # number of overall misses (Count)
system.cpu.icache.overallMisses::total            605                       # number of overall misses (Count)
system.cpu.icache.demandMissLatency::cpu.inst     46936999                       # number of demand (read+write) miss ticks (Tick)
system.cpu.icache.demandMissLatency::total     46936999                       # number of demand (read+write) miss ticks (Tick)
system.cpu.icache.overallMissLatency::cpu.inst     46936999                       # number of overall miss ticks (Tick)
system.cpu.icache.overallMissLatency::total     46936999                       # number of overall miss ticks (Tick)
system.cpu.icache.demandAccesses::cpu.inst      5128825                       # number of demand (read+write) accesses (Count)
system.cpu.icache.demandAccesses::total       5128825                       # number of demand (read+write) accesses (Count)
system.cpu.icache.overallAccesses::cpu.inst      5128825                       # number of overall (read+write) accesses (Count)
system.cpu.icache.overallAccesses::total      5128825                       # number of overall (read+write) accesses (Count)
system.cpu.icache.demandMissRate::cpu.inst     0.000118                       # miss rate for demand accesses (Ratio)
system.cpu.icache.demandMissRate::total      0.000118                       # miss rate for demand accesses (Ratio)
system.cpu.icache.overallMissRate::cpu.inst     0.000118                       # miss rate for overall accesses (Ratio)
system.cpu.icache.overallMissRate::total     0.000118                       # miss rate for overall accesses (Ratio)
system.cpu.icache.demandAvgMissLatency::cpu.inst 77581.816529                       # average overall miss latency in ticks ((Tick/Count))
system.cpu.icache.demandAvgMissLatency::total 77581.816529                       # average overall miss latency in ticks ((Tick/Count))
system.cpu.icache.overallAvgMissLatency::cpu.inst 77581.816529                       # average overall miss latency ((Tick/Count))
system.cpu.icache.overallAvgMissLatency::total 77581.816529                       # average overall miss latency ((Tick/Count))
system.cpu.icache.blockedCycles::no_mshrs          133                       # number of cycles access was blocked (Cycle)
system.cpu.icache.blockedCycles::no_targets            0                       # number of cycles access was blocked (Cycle)
system.cpu.icache.blockedCauses::no_mshrs            4                       # number of times access was blocked (Count)
system.cpu.icache.blockedCauses::no_targets            0                       # number of times access was blocked (Count)
system.cpu.icache.avgBlocked::no_mshrs      33.250000                       # average number of cycles each access was blocked ((Cycle/Count))
system.cpu.icache.avgBlocked::no_targets          nan                       # average number of cycles each access was blocked ((Cycle/Count))
system.cpu.icache.writebacks::writebacks           24                       # number of writebacks (Count)
system.cpu.icache.writebacks::total                24                       # number of writebacks (Count)
system.cpu.icache.demandMshrHits::cpu.inst          111                       # number of demand (read+write) MSHR hits (Count)
system.cpu.icache.demandMshrHits::total           111                       # number of demand (read+write) MSHR hits (Count)
system.cpu.icache.overallMshrHits::cpu.inst          111                       # number of overall MSHR hits (Count)
system.cpu.icache.overallMshrHits::total          111                       # number of overall MSHR hits (Count)
system.cpu.icache.demandMshrMisses::cpu.inst          494                       # number of demand (read+write) MSHR misses (Count)
system.cpu.icache.demandMshrMisses::total          494                       # number of demand (read+write) MSHR misses (Count)
system.cpu.icache.overallMshrMisses::cpu.inst          494                       # number of overall MSHR misses (Count)
system.cpu.icache.overallMshrMisses::total          494                       # number of overall MSHR misses (Count)
system.cpu.icache.demandMshrMissLatency::cpu.inst     39663000                       # number of demand (read+write) MSHR miss ticks (Tick)
system.cpu.icache.demandMshrMissLatency::total     39663000                       # number of demand (read+write) MSHR miss ticks (Tick)
system.cpu.icache.overallMshrMissLatency::cpu.inst     39663000                       # number of overall MSHR miss ticks (Tick)
system.cpu.icache.overallMshrMissLatency::total     39663000                       # number of overall MSHR miss ticks (Tick)
system.cpu.icache.demandMshrMissRate::cpu.inst     0.000096                       # mshr miss ratio for demand accesses (Ratio)
system.cpu.icache.demandMshrMissRate::total     0.000096                       # mshr miss ratio for demand accesses (Ratio)
system.cpu.icache.overallMshrMissRate::cpu.inst     0.000096                       # mshr miss ratio for overall accesses (Ratio)
system.cpu.icache.overallMshrMissRate::total     0.000096                       # mshr miss ratio for overall accesses (Ratio)
system.cpu.icache.demandAvgMshrMissLatency::cpu.inst 80289.473684                       # average overall mshr miss latency ((Tick/Count))
system.cpu.icache.demandAvgMshrMissLatency::total 80289.473684                       # average overall mshr miss latency ((Tick/Count))
system.cpu.icache.overallAvgMshrMissLatency::cpu.inst 80289.473684                       # average overall mshr miss latency ((Tick/Count))
system.cpu.icache.overallAvgMshrMissLatency::total 80289.473684                       # average overall mshr miss latency ((Tick/Count))
system.cpu.icache.replacements                     24                       # number of replacements (Count)
system.cpu.icache.ReadReq.hits::cpu.inst      5128220                       # number of ReadReq hits (Count)
system.cpu.icache.ReadReq.hits::total         5128220                       # number of ReadReq hits (Count)
system.cpu.icache.ReadReq.misses::cpu.inst          605                       # number of ReadReq misses (Count)
system.cpu.icache.ReadReq.misses::total           605                       # number of ReadReq misses (Count)
system.cpu.icache.ReadReq.missLatency::cpu.inst     46936999                       # number of ReadReq miss ticks (Tick)
system.cpu.icache.ReadReq.missLatency::total     46936999                       # number of ReadReq miss ticks (Tick)
system.cpu.icache.ReadReq.accesses::cpu.inst      5128825                       # number of ReadReq accesses(hits+misses) (Count)
system.cpu.icache.ReadReq.accesses::total      5128825                       # number of ReadReq accesses(hits+misses) (Count)
system.cpu.icache.ReadReq.missRate::cpu.inst     0.000118                       # miss rate for ReadReq accesses (Ratio)
system.cpu.icache.ReadReq.missRate::total     0.000118                       # miss rate for ReadReq accesses (Ratio)
system.cpu.icache.ReadReq.avgMissLatency::cpu.inst 77581.816529                       # average ReadReq miss latency ((Tick/Count))
system.cpu.icache.ReadReq.avgMissLatency::total 77581.816529                       # average ReadReq miss latency ((Tick/Count))
system.cpu.icache.ReadReq.mshrHits::cpu.inst          111                       # number of ReadReq MSHR hits (Count)
system.cpu.icache.ReadReq.mshrHits::total          111                       # number of ReadReq MSHR hits (Count)
system.cpu.icache.ReadReq.mshrMisses::cpu.inst          494                       # number of ReadReq MSHR misses (Count)
system.cpu.icache.ReadReq.mshrMisses::total          494                       # number of ReadReq MSHR misses (Count)
system.cpu.icache.ReadReq.mshrMissLatency::cpu.inst     39663000                       # number of ReadReq MSHR miss ticks (Tick)
system.cpu.icache.ReadReq.mshrMissLatency::total     39663000                       # number of ReadReq MSHR miss ticks (Tick)
system.cpu.icache.ReadReq.mshrMissRate::cpu.inst     0.000096                       # mshr miss rate for ReadReq accesses (Ratio)
system.cpu.icache.ReadReq.mshrMissRate::total     0.000096                       # mshr miss rate for ReadReq accesses (Ratio)
system.cpu.icache.ReadReq.avgMshrMissLatency::cpu.inst 80289.473684                       # average ReadReq mshr miss latency ((Tick/Count))
system.cpu.icache.ReadReq.avgMshrMissLatency::total 80289.473684                       # average ReadReq mshr miss latency ((Tick/Count))
system.cpu.icache.power_state.pwrStateResidencyTicks::UNDEFINED  97315866000                       # Cumulative time (in ticks) in various power states (Tick)
system.cpu.icache.tags.tagsInUse           431.914633                       # Average ticks per tags in use ((Tick/Count))
system.cpu.icache.tags.totalRefs              5128714                       # Total number of references to valid blocks. (Count)
system.cpu.icache.tags.sampledRefs                494                       # Sample count of references to valid blocks. (Count)
system.cpu.icache.tags.avgRefs           10382.012146                       # Average number of references to valid blocks. ((Count/Count))
system.cpu.icache.tags.warmupTick              107000                       # The tick when the warmup percentage was hit. (Tick)
system.cpu.icache.tags.occupancies::cpu.inst   431.914633                       # Average occupied blocks per tick, per requestor ((Count/Tick))
system.cpu.icache.tags.avgOccs::cpu.inst     0.421792                       # Average percentage of cache occupancy ((Ratio/Tick))
system.cpu.icache.tags.avgOccs::total        0.421792                       # Average percentage of cache occupancy ((Ratio/Tick))
system.cpu.icache.tags.occupanciesTaskId::1024          470                       # Occupied blocks per task id (Count)
system.cpu.icache.tags.ageTaskId_1024::0           43                       # Occupied blocks per task id, per block age (Count)
system.cpu.icache.tags.ageTaskId_1024::4          427                       # Occupied blocks per task id, per block age (Count)
system.cpu.icache.tags.ratioOccsTaskId::1024     0.458984                       # Ratio of occupied blocks and all blocks, per task id (Ratio)
system.cpu.icache.tags.tagAccesses           10258144                       # Number of tag accesses (Count)
system.cpu.icache.tags.dataAccesses          10258144                       # Number of data accesses (Count)
system.cpu.icache.tags.power_state.pwrStateResidencyTicks::UNDEFINED  97315866000                       # Cumulative time (in ticks) in various power states (Tick)
system.cpu.iew.idleCycles                           0                       # Number of cycles IEW is idle (Cycle)
system.cpu.iew.squashCycles                     25945                       # Number of cycles IEW is squashing (Cycle)
system.cpu.iew.blockCycles                   39838213                       # Number of cycles IEW is blocking (Cycle)
system.cpu.iew.unblockCycles                  1753262                       # Number of cycles IEW is unblocking (Cycle)
system.cpu.iew.dispatchedInsts               65049078                       # Number of instructions dispatched to IQ (Count)
system.cpu.iew.dispSquashedInsts                   91                       # Number of squashed instructions skipped by dispatch (Count)
system.cpu.iew.dispLoadInsts                 21652394                       # Number of dispatched load instructions (Count)
system.cpu.iew.dispStoreInsts                 5053930                       # Number of dispatched store instructions (Count)
system.cpu.iew.dispNonSpecInsts                     1                       # Number of dispatched non-speculative instructions (Count)
system.cpu.iew.iqFullEvents                    203372                       # Number of times the IQ has become full, causing a stall (Count)
system.cpu.iew.lsqFullEvents                   363253                       # Number of times the LSQ has become full, causing a stall (Count)
system.cpu.iew.memOrderViolationEvents            662                       # Number of memory order violations (Count)
system.cpu.iew.predictedTakenIncorrect          24658                       # Number of branches that were predicted taken incorrectly (Count)
system.cpu.iew.predictedNotTakenIncorrect          803                       # Number of branches that were predicted not taken incorrectly (Count)
system.cpu.iew.branchMispredicts                25461                       # Number of branch mispredicts detected at execute (Count)
system.cpu.iew.instsToCommit                 63698486                       # Cumulative count of insts sent to commit (Count)
system.cpu.iew.writebackCount                63697464                       # Cumulative count of insts written-back (Count)
system.cpu.iew.producerInst                  43846702                       # Number of instructions producing a value (Count)
system.cpu.iew.consumerInst                  53632086                       # Number of instructions consuming a value (Count)
system.cpu.iew.wbRate                        0.654543                       # Insts written-back per cycle ((Count/Cycle))
[...]
system.mem_ctrls.dram.perBankWrBursts::13            0                       # Per bank write bursts (Count)
system.mem_ctrls.dram.perBankWrBursts::14            0                       # Per bank write bursts (Count)
system.mem_ctrls.dram.perBankWrBursts::15            8                       # Per bank write bursts (Count)
system.mem_ctrls.dram.totQLat             13529130431                       # Total ticks spent queuing (Tick)
system.mem_ctrls.dram.totBusLat            4308760000                       # Total ticks spent in databus transfers (Tick)
system.mem_ctrls.dram.totMemAccLat        29686980431                       # Total ticks spent from burst creation until serviced by the DRAM (Tick)
system.mem_ctrls.dram.avgQLat                15699.56                       # Average queueing delay per DRAM burst ((Tick/Count))
system.mem_ctrls.dram.avgBusLat               5000.00                       # Average bus latency per DRAM burst ((Tick/Count))
system.mem_ctrls.dram.avgMemAccLat           34449.56                       # Average memory access latency per DRAM burst ((Tick/Count))
system.mem_ctrls.dram.readRowHits              580714                       # Number of row buffer hits during reads (Count)
system.mem_ctrls.dram.writeRowHits               1471                       # Number of row buffer hits during writes (Count)
system.mem_ctrls.dram.readRowHitRate            67.39                       # Row buffer hit rate for reads (Ratio)
system.mem_ctrls.dram.writeRowHitRate           89.10                       # Row buffer hit rate for writes (Ratio)
system.mem_ctrls.dram.bytesPerActivate::samples       281207                       # Bytes accessed per row activation (Byte)
system.mem_ctrls.dram.bytesPerActivate::mean   196.491268                       # Bytes accessed per row activation (Byte)
system.mem_ctrls.dram.bytesPerActivate::gmean   146.709763                       # Bytes accessed per row activation (Byte)
system.mem_ctrls.dram.bytesPerActivate::stdev   171.377066                       # Bytes accessed per row activation (Byte)
system.mem_ctrls.dram.bytesPerActivate::0-127        96033     34.15%     34.15% # Bytes accessed per row activation (Byte)
system.mem_ctrls.dram.bytesPerActivate::128-255       102331     36.39%     70.54% # Bytes accessed per row activation (Byte)
system.mem_ctrls.dram.bytesPerActivate::256-383        43897     15.61%     86.15% # Bytes accessed per row activation (Byte)
system.mem_ctrls.dram.bytesPerActivate::384-511        19814      7.05%     93.20% # Bytes accessed per row activation (Byte)
system.mem_ctrls.dram.bytesPerActivate::512-639         9244      3.29%     96.48% # Bytes accessed per row activation (Byte)
system.mem_ctrls.dram.bytesPerActivate::640-767         4283      1.52%     98.01% # Bytes accessed per row activation (Byte)
system.mem_ctrls.dram.bytesPerActivate::768-895         2164      0.77%     98.78% # Bytes accessed per row activation (Byte)
system.mem_ctrls.dram.bytesPerActivate::896-1023         1099      0.39%     99.17% # Bytes accessed per row activation (Byte)
system.mem_ctrls.dram.bytesPerActivate::1024-1151         2342      0.83%    100.00% # Bytes accessed per row activation (Byte)
system.mem_ctrls.dram.bytesPerActivate::total       281207                       # Bytes accessed per row activation (Byte)
system.mem_ctrls.dram.bytesRead              55152128                       # Total bytes read (Byte)
system.mem_ctrls.dram.bytesWritten             105664                       # Total bytes written (Byte)
system.mem_ctrls.dram.avgRdBW              566.733157                       # Average DRAM read bandwidth in MiBytes/s ((Byte/Second))
system.mem_ctrls.dram.avgWrBW                1.085784                       # Average DRAM write bandwidth in MiBytes/s ((Byte/Second))
system.mem_ctrls.dram.peakBW                 12800.00                       # Theoretical peak bandwidth in MiByte/s ((Byte/Second))
system.mem_ctrls.dram.busUtil                    4.44                       # Data bus utilization in percentage (Ratio)
system.mem_ctrls.dram.busUtilRead                4.43                       # Data bus utilization in percentage for reads (Ratio)
system.mem_ctrls.dram.busUtilWrite               0.01                       # Data bus utilization in percentage for writes (Ratio)
system.mem_ctrls.dram.pageHitRate               67.43                       # Row buffer hit rate, read and write combined (Ratio)
system.mem_ctrls.dram.power_state.pwrStateResidencyTicks::UNDEFINED  97315866000                       # Cumulative time (in ticks) in various power states (Tick)
system.mem_ctrls.dram.rank0.actEnergy      1015829220                       # Energy for activate commands per rank (pJ) (Joule)
system.mem_ctrls.dram.rank0.preEnergy       539903265                       # Energy for precharge commands per rank (pJ) (Joule)
system.mem_ctrls.dram.rank0.readEnergy     3125406480                       # Energy for read commands per rank (pJ) (Joule)
system.mem_ctrls.dram.rank0.writeEnergy       1117080                       # Energy for write commands per rank (pJ) (Joule)
system.mem_ctrls.dram.rank0.refreshEnergy 7681770720.000001                       # Energy for refresh commands per rank (pJ) (Joule)
system.mem_ctrls.dram.rank0.actBackEnergy  42068971410                       # Energy for active background per rank (pJ) (Joule)
system.mem_ctrls.dram.rank0.preBackEnergy   1942790400                       # Energy for precharge background per rank (pJ) (Joule)
system.mem_ctrls.dram.rank0.actPowerDownEnergy            0                       # Energy for active power-down per rank (pJ) (Joule)
system.mem_ctrls.dram.rank0.prePowerDownEnergy            0                       # Energy for precharge power-down per rank (pJ) (Joule)
system.mem_ctrls.dram.rank0.selfRefreshEnergy            0                       # Energy for self refresh per rank (pJ) (Joule)
system.mem_ctrls.dram.rank0.totalEnergy   56375788575                       # Total energy per rank (pJ) (Joule)
system.mem_ctrls.dram.rank0.averagePower   579.307269                       # Core power per rank (mW) (Watt)
system.mem_ctrls.dram.rank0.totalIdleTime            0                       # Total Idle time Per DRAM Rank (Tick)
system.mem_ctrls.dram.rank0.pwrStateTime::IDLE   4694453422                       # Time in different power states (Tick)
system.mem_ctrls.dram.rank0.pwrStateTime::REF   3249480000                       # Time in different power states (Tick)
system.mem_ctrls.dram.rank0.pwrStateTime::SREF            0                       # Time in different power states (Tick)
system.mem_ctrls.dram.rank0.pwrStateTime::PRE_PDN            0                       # Time in different power states (Tick)
system.mem_ctrls.dram.rank0.pwrStateTime::ACT  89371932578                       # Time in different power states (Tick)
system.mem_ctrls.dram.rank0.pwrStateTime::ACT_PDN            0                       # Time in different power states (Tick)
system.mem_ctrls.dram.rank1.actEnergy       992067300                       # Energy for activate commands per rank (pJ) (Joule)
system.mem_ctrls.dram.rank1.preEnergy       527277300                       # Energy for precharge commands per rank (pJ) (Joule)
system.mem_ctrls.dram.rank1.readEnergy     3027502800                       # Energy for read commands per rank (pJ) (Joule)
system.mem_ctrls.dram.rank1.writeEnergy       7501140                       # Energy for write commands per rank (pJ) (Joule)
system.mem_ctrls.dram.rank1.refreshEnergy 7681770720.000001                       # Energy for refresh commands per rank (pJ) (Joule)
system.mem_ctrls.dram.rank1.actBackEnergy  42012421140                       # Energy for active background per rank (pJ) (Joule)
system.mem_ctrls.dram.rank1.preBackEnergy   1990411680                       # Energy for precharge background per rank (pJ) (Joule)
system.mem_ctrls.dram.rank1.actPowerDownEnergy            0                       # Energy for active power-down per rank (pJ) (Joule)
system.mem_ctrls.dram.rank1.prePowerDownEnergy            0                       # Energy for precharge power-down per rank (pJ) (Joule)
system.mem_ctrls.dram.rank1.selfRefreshEnergy            0                       # Energy for self refresh per rank (pJ) (Joule)
system.mem_ctrls.dram.rank1.totalEnergy   56238952080                       # Total energy per rank (pJ) (Joule)
system.mem_ctrls.dram.rank1.averagePower   577.901162                       # Core power per rank (mW) (Watt)
system.mem_ctrls.dram.rank1.totalIdleTime            0                       # Total Idle time Per DRAM Rank (Tick)
system.mem_ctrls.dram.rank1.pwrStateTime::IDLE   4818759714                       # Time in different power states (Tick)
system.mem_ctrls.dram.rank1.pwrStateTime::REF   3249480000                       # Time in different power states (Tick)
system.mem_ctrls.dram.rank1.pwrStateTime::SREF            0                       # Time in different power states (Tick)
system.mem_ctrls.dram.rank1.pwrStateTime::PRE_PDN            0                       # Time in different power states (Tick)
system.mem_ctrls.dram.rank1.pwrStateTime::ACT  89247626286                       # Time in different power states (Tick)
system.mem_ctrls.dram.rank1.pwrStateTime::ACT_PDN            0                       # Time in different power states (Tick)
system.mem_ctrls.power_state.pwrStateResidencyTicks::UNDEFINED  97315866000                       # Cumulative time (in ticks) in various power states (Tick)
system.membus.transDist::ReadResp              861822                       # Transaction distribution (Count)
system.membus.transDist::WritebackDirty          1677                       # Transaction distribution (Count)
system.membus.transDist::CleanEvict            855673                       # Transaction distribution (Count)
system.membus.transDist::ReadExReq                 53                       # Transaction distribution (Count)
system.membus.transDist::ReadExResp                53                       # Transaction distribution (Count)
system.membus.transDist::ReadSharedReq         861822                       # Transaction distribution (Count)
system.membus.pktCount_system.l2.mem_side_port::system.mem_ctrls.port      2581100                       # Packet count per connected requestor and responder (Count)
system.membus.pktCount_system.l2.mem_side_port::total      2581100                       # Packet count per connected requestor and responder (Count)
system.membus.pktCount::total                 2581100                       # Packet count per connected requestor and responder (Count)
system.membus.pktSize_system.l2.mem_side_port::system.mem_ctrls.port     55267328                       # Cumulative packet size per connected requestor and responder (Byte)
system.membus.pktSize_system.l2.mem_side_port::total     55267328                       # Cumulative packet size per connected requestor and responder (Byte)
system.membus.pktSize::total                 55267328                       # Cumulative packet size per connected requestor and responder (Byte)
system.membus.snoops                                0                       # Total snoops (Count)
system.membus.snoopTraffic                          0                       # Total snoop traffic (Byte)
system.membus.snoopFanout::samples             861875                       # Request fanout histogram (Count)
system.membus.snoopFanout::mean                     0                       # Request fanout histogram (Count)
system.membus.snoopFanout::stdev                    0                       # Request fanout histogram (Count)
system.membus.snoopFanout::underflows               0      0.00%      0.00% # Request fanout histogram (Count)
system.membus.snoopFanout::0                   861875    100.00%    100.00% # Request fanout histogram (Count)
system.membus.snoopFanout::1                        0      0.00%    100.00% # Request fanout histogram (Count)
system.membus.snoopFanout::overflows                0      0.00%    100.00% # Request fanout histogram (Count)
system.membus.snoopFanout::min_value                0                       # Request fanout histogram (Count)
system.membus.snoopFanout::max_value                0                       # Request fanout histogram (Count)
system.membus.snoopFanout::total               861875                       # Request fanout histogram (Count)
system.membus.power_state.pwrStateResidencyTicks::UNDEFINED  97315866000                       # Cumulative time (in ticks) in various power states (Tick)
system.membus.reqLayer2.occupancy          1906109996                       # Layer occupancy (ticks) (Tick)
system.membus.reqLayer2.utilization               0.0                       # Layer utilization (Ratio)
system.membus.respLayer1.occupancy         4564740564                       # Layer occupancy (ticks) (Tick)
system.membus.respLayer1.utilization              0.0                       # Layer utilization (Ratio)
system.membus.snoop_filter.totRequests        1719225                       # Total number of requests made to the snoop filter. (Count)
system.membus.snoop_filter.hitSingleRequests       857350                       # Number of requests hitting in the snoop filter with a single holder of the requested data. (Count)
system.membus.snoop_filter.hitMultiRequests            0                       # Number of requests hitting in the snoop filter with multiple (>1) holders of the requested data. (Count)
system.membus.snoop_filter.totSnoops                0                       # Total number of snoops made to the snoop filter. (Count)
system.membus.snoop_filter.hitSingleSnoops            0                       # Number of snoops hitting in the snoop filter with a single holder of the requested data. (Count)
system.membus.snoop_filter.hitMultiSnoops            0                       # Number of snoops hitting in the snoop filter with multiple (>1) holders of the requested data. (Count)
system.tol2bus.transDist::ReadResp            4238950                       # Transaction distribution (Count)
system.tol2bus.transDist::WritebackDirty         5135                       # Transaction distribution (Count)
system.tol2bus.transDist::WritebackClean           24                       # Transaction distribution (Count)
system.tol2bus.transDist::CleanEvict          5090282                       # Transaction distribution (Count)
system.tol2bus.transDist::HardPFReq            435011                       # Transaction distribution (Count)
system.tol2bus.transDist::ReadExReq                63                       # Transaction distribution (Count)
system.tol2bus.transDist::ReadExResp               63                       # Transaction distribution (Count)
system.tol2bus.transDist::ReadCleanReq            494                       # Transaction distribution (Count)
system.tol2bus.transDist::ReadSharedReq       4238456                       # Transaction distribution (Count)
system.tol2bus.pktCount_system.cpu.icache.mem_side_port::system.l2.cpu_side_port         1012                       # Packet count per connected requestor and responder (Count)
system.tol2bus.pktCount_system.cpu.dcache.mem_side_port::system.l2.cpu_side_port     12714533                       # Packet count per connected requestor and responder (Count)
system.tol2bus.pktCount::total               12715545                       # Packet count per connected requestor and responder (Count)
system.tol2bus.pktSize_system.cpu.icache.mem_side_port::system.l2.cpu_side_port        33152                       # Cumulative packet size per connected requestor and responder (Byte)
system.tol2bus.pktSize_system.cpu.dcache.mem_side_port::system.l2.cpu_side_port    271486528                       # Cumulative packet size per connected requestor and responder (Byte)
system.tol2bus.pktSize::total               271519680                       # Cumulative packet size per connected requestor and responder (Byte)
system.tol2bus.snoops                         1292933                       # Total snoops (Count)
system.tol2bus.snoopTraffic                    107328                       # Total snoop traffic (Byte)
system.tol2bus.snoopFanout::samples           5531946                       # Request fanout histogram (Count)
system.tol2bus.snoopFanout::mean             0.000196                       # Request fanout histogram (Count)
system.tol2bus.snoopFanout::stdev            0.014010                       # Request fanout histogram (Count)
system.tol2bus.snoopFanout::underflows              0      0.00%      0.00% # Request fanout histogram (Count)
system.tol2bus.snoopFanout::0                 5530860     99.98%     99.98% # Request fanout histogram (Count)
system.tol2bus.snoopFanout::1                    1086      0.02%    100.00% # Request fanout histogram (Count)
system.tol2bus.snoopFanout::2                       0      0.00%    100.00% # Request fanout histogram (Count)
system.tol2bus.snoopFanout::3                       0      0.00%    100.00% # Request fanout histogram (Count)
system.tol2bus.snoopFanout::4                       0      0.00%    100.00% # Request fanout histogram (Count)
system.tol2bus.snoopFanout::overflows               0      0.00%    100.00% # Request fanout histogram (Count)
system.tol2bus.snoopFanout::min_value               0                       # Request fanout histogram (Count)
system.tol2bus.snoopFanout::max_value               1                       # Request fanout histogram (Count)
system.tol2bus.snoopFanout::total             5531946                       # Request fanout histogram (Count)
system.tol2bus.power_state.pwrStateResidencyTicks::UNDEFINED  97315866000                       # Cumulative time (in ticks) in various power states (Tick)
system.tol2bus.reqLayer0.occupancy        10926260630                       # Layer occupancy (ticks) (Tick)
system.tol2bus.reqLayer0.utilization              0.1                       # Layer utilization (Ratio)
system.tol2bus.respLayer0.occupancy           1483998                       # Layer occupancy (ticks) (Tick)
system.tol2bus.respLayer0.utilization             0.0                       # Layer utilization (Ratio)
system.tol2bus.respLayer1.occupancy       12715557000                       # Layer occupancy (ticks) (Tick)
system.tol2bus.respLayer1.utilization             0.1                       # Layer utilization (Ratio)
system.tol2bus.snoop_filter.totRequests       8476532                       # Total number of requests made to the snoop filter. (Count)
system.tol2bus.snoop_filter.hitSingleRequests      4237519                       # Number of requests hitting in the snoop filter with a single holder of the requested data. (Count)
system.tol2bus.snoop_filter.hitMultiRequests            0                       # Number of requests hitting in the snoop filter with multiple (>1) holders of the requested data. (Count)
system.tol2bus.snoop_filter.totSnoops            1086                       # Total number of snoops made to the snoop filter. (Count)
system.tol2bus.snoop_filter.hitSingleSnoops         1086                       # Number of snoops hitting in the snoop filter with a single holder of the requested data. (Count)
system.tol2bus.snoop_filter.hitMultiSnoops            0                       # Number of snoops hitting in the snoop filter with multiple (>1) holders of the requested data. (Count)
system.voltage_domain.voltage                       1                       # Voltage in Volts (Volt)
system.workload.inst.arm                            0                       # number of arm instructions executed (Count)
system.workload.inst.quiesce                        0                       # number of quiesce instructions executed (Count)

---------- End Simulation Statistics   ----------
