
---------- Begin Simulation Statistics ----------
simSeconds                                   0.050490                       # Number of seconds simulated (Second)
simTicks                                  50489781500                       # Number of ticks simulated (Tick)
finalTick                                 50489781500                       # Number of ticks from beginning of simulation (restored from checkpoints and never reset) (Tick)
simFreq                                  1000000000000                       # The number of ticks per simulated second ((Tick/Second))
hostSeconds                                    126.43                       # Real time elapsed on the host (Second)
hostTickRate                                399340048                       # The number of ticks simulated per host second (ticks/s) ((Tick/Second))
hostMemory                                     655064                       # Number of bytes of host memory used (Byte)
simInsts                                      9995995                       # Number of instructions simulated (Count)
simOps                                       17794319                       # Number of ops (including micro ops) simulated (Count)
hostInstRate                                    79062                       # Simulator instruction rate (inst/s) ((Count/Second))
hostOpRate                                     140741                       # Simulator op (including micro ops) rate (op/s) ((Count/Second))
system.clk_domain.clock                          1000                       # Clock period in ticks (Tick)
system.cpu.numCycles                        201959127                       # Number of cpu cycles simulated (Cycle)
system.cpu.numWorkItemsStarted                      0                       # Number of work items this cpu started (Count)
system.cpu.numWorkItemsCompleted                    0                       # Number of work items this cpu completed (Count)
system.cpu.instsAdded                        17868775                       # Number of instructions added to the IQ (excludes non-spec) (Count)
system.cpu.nonSpecInstsAdded                       34                       # Number of non-speculative instructions added to the IQ (Count)
system.cpu.instsIssued                       17864347                       # Number of instructions issued (Count)
system.cpu.squashedInstsIssued                     54                       # Number of squashed instructions issued (Count)
system.cpu.squashedInstsExamined                74484                       # Number of squashed instructions iterated over during squash; mainly for profiling (Count)
system.cpu.squashedOperandsExamined             48200                       # Number of squashed operands that are examined and possibly removed from graph (Count)
system.cpu.squashedNonSpecRemoved                  22                       # Number of squashed non-spec instructions that were removed (Count)
system.cpu.numIssuedDist::samples           201899024                       # Number of insts issued each cycle (Count)
system.cpu.numIssuedDist::mean               0.088482                       # Number of insts issued each cycle (Count)
system.cpu.numIssuedDist::stdev              0.586077                       # Number of insts issued each cycle (Count)
system.cpu.numIssuedDist::underflows                0      0.00%      0.00% # Number of insts issued each cycle (Count)
system.cpu.numIssuedDist::0                 196135801     97.15%     97.15% # Number of insts issued each cycle (Count)
system.cpu.numIssuedDist::1                   1073122      0.53%     97.68% # Number of insts issued each cycle (Count)
system.cpu.numIssuedDist::2                   1651842      0.82%     98.50% # Number of insts issued each cycle (Count)
system.cpu.numIssuedDist::3                    625740      0.31%     98.81% # Number of insts issued each cycle (Count)
system.cpu.numIssuedDist::4                    970638      0.48%     99.29% # Number of insts issued each cycle (Count)
system.cpu.numIssuedDist::5                   1061299      0.53%     99.81% # Number of insts issued each cycle (Count)
system.cpu.numIssuedDist::6                    274439      0.14%     99.95% # Number of insts issued each cycle (Count)
system.cpu.numIssuedDist::7                     74504      0.04%     99.98% # Number of insts issued each cycle (Count)
system.cpu.numIssuedDist::8                     31639      0.02%    100.00% # Number of insts issued each cycle (Count)
system.cpu.numIssuedDist::overflows                 0      0.00%    100.00% # Number of insts issued each cycle (Count)
system.cpu.numIssuedDist::min_value                 0                       # Number of insts issued each cycle (Count)
system.cpu.numIssuedDist::max_value                 8                       # Number of insts issued each cycle (Count)
system.cpu.numIssuedDist::total             201899024                       # Number of insts issued each cycle (Count)
system.cpu.statFuBusy::No_OpClass                   0      0.00%      0.00% # attempts to use FU when none available (Count)
system.cpu.statFuBusy::IntAlu                   51138     29.04%     29.04% # attempts to use FU when none available (Count)
system.cpu.statFuBusy::IntMult                      0      0.00%     29.04% # attempts to use FU when none available (Count)
system.cpu.statFuBusy::IntDiv                       0      0.00%     29.04% # attempts to use FU when none available (Count)
system.cpu.statFuBusy::FloatAdd                     0      0.00%     29.04% # attempts to use FU when none available (Count)
system.cpu.statFuBusy::FloatCmp                     0      0.00%     29.04% # attempts to use FU when none available (Count)
system.cpu.statFuBusy::FloatCvt                     0      0.00%     29.04% # attempts to use FU when none available (Count)
system.cpu.statFuBusy::FloatMult                    0      0.00%     29.04% # attempts to use FU when none available (Count)
system.cpu.statFuBusy::FloatMultAcc                 0      0.00%     29.04% # attempts to use FU when none available (Count)
system.cpu.statFuBusy::FloatDiv                     0      0.00%     29.04% # attempts to use FU when none available (Count)
system.cpu.statFuBusy::FloatMisc                    0      0.00%     29.04% # attempts to use FU when none available (Count)
system.cpu.statFuBusy::FloatSqrt                    0      0.00%     29.04% # attempts to use FU when none available (Count)
system.cpu.statFuBusy::SimdAdd                      0      0.00%     29.04% # attempts to use FU when none available (Count)
system.cpu.statFuBusy::SimdAddAcc                   0      0.00%     29.04% # attempts to use FU when none available (Count)
system.cpu.statFuBusy::SimdAlu                  31226     17.73%     46.78% # attempts to use FU when none available (Count)
system.cpu.statFuBusy::SimdCmp                      0      0.00%     46.78% # attempts to use FU when none available (Count)
system.cpu.statFuBusy::SimdCvt                  31219     17.73%     64.51% # attempts to use FU when none available (Count)
system.cpu.statFuBusy::SimdMisc                 62447     35.46%     99.97% # attempts to use FU when none available (Count)
system.cpu.statFuBusy::SimdMult                     0      0.00%     99.97% # attempts to use FU when none available (Count)
system.cpu.statFuBusy::SimdMultAcc                  0      0.00%     99.97% # attempts to use FU when none available (Count)
system.cpu.statFuBusy::SimdShift                    0      0.00%     99.97% # attempts to use FU when none available (Count)
system.cpu.statFuBusy::SimdShiftAcc                 0      0.00%     99.97% # attempts to use FU when none available (Count)
system.cpu.statFuBusy::SimdDiv                      0      0.00%     99.97% # attempts to use FU when none available (Count)
system.cpu.statFuBusy::SimdSqrt                     0      0.00%     99.97% # attempts to use FU when none available (Count)
system.cpu.statFuBusy::SimdFloatAdd                 0      0.00%     99.97% # attempts to use FU when none available (Count)
system.cpu.statFuBusy::SimdFloatAlu                 0      0.00%     99.97% # attempts to use FU when none available (Count)
system.cpu.statFuBusy::SimdFloatCmp                 0      0.00%     99.97% # attempts to use FU when none available (Count)
system.cpu.statFuBusy::SimdFloatCvt                 0      0.00%     99.97% # attempts to use FU when none available (Count)
system.cpu.statFuBusy::SimdFloatDiv                 0      0.00%     99.97% # attempts to use FU when none available (Count)
system.cpu.statFuBusy::SimdFloatMisc                0      0.00%     99.97% # attempts to use FU when none available (Count)
system.cpu.statFuBusy::SimdFloatMult                0      0.00%     99.97% # attempts to use FU when none available (Count)
system.cpu.statFuBusy::SimdFloatMultAcc             0      0.00%     99.97% # attempts to use FU when none available (Count)
system.cpu.statFuBusy::SimdFloatSqrt                0      0.00%     99.97% # attempts to use FU when none available (Count)
system.cpu.statFuBusy::SimdReduceAdd                0      0.00%     99.97% # attempts to use FU when none available (Count)
system.cpu.statFuBusy::SimdReduceAlu                0      0.00%     99.97% # attempts to use FU when none available (Count)
system.cpu.statFuBusy::SimdReduceCmp                0      0.00%     99.97% # attempts to use FU when none available (Count)
system.cpu.statFuBusy::SimdFloatReduceAdd            0      0.00%     99.97% # attempts to use FU when none available (Count)
system.cpu.statFuBusy::SimdFloatReduceCmp            0      0.00%     99.97% # attempts to use FU when none available (Count)
system.cpu.statFuBusy::SimdAes                      0      0.00%     99.97% # attempts to use FU when none available (Count)
system.cpu.statFuBusy::SimdAesMix                   0      0.00%     99.97% # attempts to use FU when none available (Count)
system.cpu.statFuBusy::SimdSha1Hash                 0      0.00%     99.97% # attempts to use FU when none available (Count)
system.cpu.statFuBusy::SimdSha1Hash2                0      0.00%     99.97% # attempts to use FU when none available (Count)
system.cpu.statFuBusy::SimdSha256Hash               0      0.00%     99.97% # attempts to use FU when none available (Count)
system.cpu.statFuBusy::SimdSha256Hash2              0      0.00%     99.97% # attempts to use FU when none available (Count)
system.cpu.statFuBusy::SimdShaSigma2                0      0.00%     99.97% # attempts to use FU when none available (Count)
system.cpu.statFuBusy::SimdShaSigma3                0      0.00%     99.97% # attempts to use FU when none available (Count)
system.cpu.statFuBusy::SimdPredAlu                  0      0.00%     99.97% # attempts to use FU when none available (Count)
system.cpu.statFuBusy::MemRead                     26      0.01%     99.98% # attempts to use FU when none available (Count)
system.cpu.statFuBusy::MemWrite                    13      0.01%     99.99% # attempts to use FU when none available (Count)
system.cpu.statFuBusy::FloatMemRead                 2      0.00%     99.99% # attempts to use FU when none available (Count)
system.cpu.statFuBusy::FloatMemWrite               12      0.01%    100.00% # attempts to use FU when none available (Count)
system.cpu.statFuBusy::IprAccess                    0      0.00%    100.00% # attempts to use FU when none available (Count)
system.cpu.statFuBusy::InstPrefetch                 0      0.00%    100.00% # attempts to use FU when none available (Count)
system.cpu.statIssuedInstType_0::No_OpClass          815      0.00%      0.00% # Number of instructions issued per FU type, per thread (Count)
system.cpu.statIssuedInstType_0::IntAlu      14024565     78.51%     78.51% # Number of instructions issued per FU type, per thread (Count)
system.cpu.statIssuedInstType_0::IntMult         1574      0.01%     78.52% # Number of instructions issued per FU type, per thread (Count)
system.cpu.statIssuedInstType_0::IntDiv            21      0.00%     78.52% # Number of instructions issued per FU type, per thread (Count)
system.cpu.statIssuedInstType_0::FloatAdd          145      0.00%     78.52% # Number of instructions issued per FU type, per thread (Count)
system.cpu.statIssuedInstType_0::FloatCmp            0      0.00%     78.52% # Number of instructions issued per FU type, per thread (Count)
system.cpu.statIssuedInstType_0::FloatCvt            0      0.00%     78.52% # Number of instructions issued per FU type, per thread (Count)
system.cpu.statIssuedInstType_0::FloatMult            0      0.00%     78.52% # Number of instructions issued per FU type, per thread (Count)
system.cpu.statIssuedInstType_0::FloatMultAcc            0      0.00%     78.52% # Number of instructions issued per FU type, per thread (Count)
system.cpu.statIssuedInstType_0::FloatDiv            0      0.00%     78.52% # Number of instructions issued per FU type, per thread (Count)
system.cpu.statIssuedInstType_0::FloatMisc            0      0.00%     78.52% # Number of instructions issued per FU type, per thread (Count)
system.cpu.statIssuedInstType_0::FloatSqrt            0      0.00%     78.52% # Number of instructions issued per FU type, per thread (Count)
system.cpu.statIssuedInstType_0::SimdAdd       499996      2.80%     81.32% # Number of instructions issued per FU type, per thread (Count)
system.cpu.statIssuedInstType_0::SimdAddAcc            0      0.00%     81.32% # Number of instructions issued per FU type, per thread (Count)
system.cpu.statIssuedInstType_0::SimdAlu       125180      0.70%     82.02% # Number of instructions issued per FU type, per thread (Count)
system.cpu.statIssuedInstType_0::SimdCmp            0      0.00%     82.02% # Number of instructions issued per FU type, per thread (Count)
system.cpu.statIssuedInstType_0::SimdCvt       125046      0.70%     82.72% # Number of instructions issued per FU type, per thread (Count)
system.cpu.statIssuedInstType_0::SimdMisc       750207      4.20%     86.92% # Number of instructions issued per FU type, per thread (Count)
system.cpu.statIssuedInstType_0::SimdMult            0      0.00%     86.92% # Number of instructions issued per FU type, per thread (Count)
system.cpu.statIssuedInstType_0::SimdMultAcc            0      0.00%     86.92% # Number of instructions issued per FU type, per thread (Count)
system.cpu.statIssuedInstType_0::SimdShift           11      0.00%     86.92% # Number of instructions issued per FU type, per thread (Count)
system.cpu.statIssuedInstType_0::SimdShiftAcc            0      0.00%     86.92% # Number of instructions issued per FU type, per thread (Count)
system.cpu.statIssuedInstType_0::SimdDiv            0      0.00%     86.92% # Number of instructions issued per FU type, per thread (Count)
system.cpu.statIssuedInstType_0::SimdSqrt            0      0.00%     86.92% # Number of instructions issued per FU type, per thread (Count)
system.cpu.statIssuedInstType_0::SimdFloatAdd            0      0.00%     86.92% # Number of instructions issued per FU type, per thread (Count)
system.cpu.statIssuedInstType_0::SimdFloatAlu            0      0.00%     86.92% # Number of instructions issued per FU type, per thread (Count)
system.cpu.statIssuedInstType_0::SimdFloatCmp            0      0.00%     86.92% # Number of instructions issued per FU type, per thread (Count)
system.cpu.statIssuedInstType_0::SimdFloatCvt            0      0.00%     86.92% # Number of instructions issued per FU type, per thread (Count)
system.cpu.statIssuedInstType_0::SimdFloatDiv            0      0.00%     86.92% # Number of instructions issued per FU type, per thread (Count)
system.cpu.statIssuedInstType_0::SimdFloatMisc            0      0.00%     86.92% # Number of instructions issued per FU type, per thread (Count)
system.cpu.statIssuedInstType_0::SimdFloatMult            0      0.00%     86.92% # Number of instructions issued per FU type, per thread (Count)
system.cpu.statIssuedInstType_0::SimdFloatMultAcc            0      0.00%     86.92% # Number of instructions issued per FU type, per thread (Count)
system.cpu.statIssuedInstType_0::SimdFloatSqrt            0      0.00%     86.92% # Number of instructions issued per FU type, per thread (Count)
system.cpu.statIssuedInstType_0::SimdReduceAdd            0      0.00%     86.92% # Number of instructions issued per FU type, per thread (Count)
system.cpu.statIssuedInstType_0::SimdReduceAlu            0      0.00%     86.92% # Number of instructions issued per FU type, per thread (Count)
system.cpu.statIssuedInstType_0::SimdReduceCmp            0      0.00%     86.92% # Number of instructions issued per FU type, per thread (Count)
system.cpu.statIssuedInstType_0::SimdFloatReduceAdd            0      0.00%     86.92% # Number of instructions issued per FU type, per thread (Count)
system.cpu.statIssuedInstType_0::SimdFloatReduceCmp            0      0.00%     86.92% # Number of instructions issued per FU type, per thread (Count)
system.cpu.statIssuedInstType_0::SimdAes            0      0.00%     86.92% # Number of instructions issued per FU type, per thread (Count)
system.cpu.statIssuedInstType_0::SimdAesMix            0      0.00%     86.92% # Number of instructions issued per FU type, per thread (Count)
system.cpu.statIssuedInstType_0::SimdSha1Hash            0      0.00%     86.92% # Number of instructions issued per FU type, per thread (Count)
system.cpu.statIssuedInstType_0::SimdSha1Hash2            0      0.00%     86.92% # Number of instructions issued per FU type, per thread (Count)
system.cpu.statIssuedInstType_0::SimdSha256Hash            0      0.00%     86.92% # Number of instructions issued per FU type, per thread (Count)
system.cpu.statIssuedInstType_0::SimdSha256Hash2            0      0.00%     86.92% # Number of instructions issued per FU type, per thread (Count)
system.cpu.statIssuedInstType_0::SimdShaSigma2            0      0.00%     86.92% # Number of instructions issued per FU type, per thread (Count)
system.cpu.statIssuedInstType_0::SimdShaSigma3            0      0.00%     86.92% # Number of instructions issued per FU type, per thread (Count)
system.cpu.statIssuedInstType_0::SimdPredAlu            0      0.00%     86.92% # Number of instructions issued per FU type, per thread (Count)
system.cpu.statIssuedInstType_0::MemRead         4544      0.03%     86.94% # Number of instructions issued per FU type, per thread (Count)
system.cpu.statIssuedInstType_0::MemWrite      2206631     12.35%     99.30% # Number of instructions issued per FU type, per thread (Count)
system.cpu.statIssuedInstType_0::FloatMemRead       125084      0.70%    100.00% # Number of instructions issued per FU type, per thread (Count)
system.cpu.statIssuedInstType_0::FloatMemWrite          528      0.00%    100.00% # Number of instructions issued per FU type, per thread (Count)
system.cpu.statIssuedInstType_0::IprAccess            0      0.00%    100.00% # Number of instructions issued per FU type, per thread (Count)
system.cpu.statIssuedInstType_0::InstPrefetch            0      0.00%    100.00% # Number of instructions issued per FU type, per thread (Count)
system.cpu.statIssuedInstType_0::total       17864347                       # Number of instructions issued per FU type, per thread (Count)
system.cpu.issueRate                         0.088455                       # Inst issue rate ((Count/Cycle))
system.cpu.fuBusy                              176083                       # FU busy when requested (Count)
system.cpu.fuBusyRate                        0.009857                       # FU busy rate (busy events/executed inst) ((Count/Count))
system.cpu.intInstQueueReads                233676275                       # Number of integer instruction queue reads (Count)
system.cpu.intInstQueueWrites                15941639                       # Number of integer instruction queue writes (Count)
system.cpu.intInstQueueWakeupAccesses        15854085                       # Number of integer instruction queue wakeup accesses (Count)
system.cpu.fpInstQueueReads                   4127580                       # Number of floating instruction queue reads (Count)
system.cpu.fpInstQueueWrites                  2001664                       # Number of floating instruction queue writes (Count)
system.cpu.fpInstQueueWakeupAccesses          2001291                       # Number of floating instruction queue wakeup accesses (Count)
system.cpu.vecInstQueueReads                        0                       # Number of vector instruction queue reads (Count)
system.cpu.vecInstQueueWrites                       0                       # Number of vector instruction queue writes (Count)
system.cpu.vecInstQueueWakeupAccesses               0                       # Number of vector instruction queue wakeup accesses (Count)
system.cpu.intAluAccesses                    15913374                       # Number of integer alu accesses (Count)
system.cpu.fpAluAccesses                      2126241                       # Number of floating point alu accesses (Count)
system.cpu.vecAluAccesses                           0                       # Number of vector alu accesses (Count)
system.cpu.numInsts                          17863171                       # Number of executed instructions (Count)
system.cpu.numLoadInsts                        129391                       # Number of load instructions executed (Count)
system.cpu.numSquashedInsts                      1176                       # Number of squashed instructions skipped in execute (Count)
system.cpu.numSwp                                   0                       # Number of swp insts executed (Count)
system.cpu.numNop                                   0                       # Number of nop insts executed (Count)
system.cpu.numRefs                            2336454                       # Number of memory reference insts executed (Count)
system.cpu.numBranches                        2272831                       # Number of branches executed (Count)
system.cpu.numStoreInsts                      2207063                       # Number of stores executed (Count)
system.cpu.numRate                           0.088449                       # Inst execution rate ((Count/Cycle))
system.cpu.timesIdled                             340                       # Number of times that the entire CPU went into an idle state and unscheduled itself (Count)
system.cpu.idleCycles                           60103                       # Total number of cycles that the CPU has spent unscheduled due to idling (Cycle)
system.cpu.committedInsts                     9995995                       # Number of Instructions Simulated (Count)
system.cpu.committedOps                      17794319                       # Number of Ops (including micro ops) Simulated (Count)
system.cpu.cpi                              20.204004                       # CPI: Cycles Per Instruction ((Cycle/Count))
system.cpu.totalCpi                         20.204004                       # CPI: Total CPI of All Threads ((Cycle/Count))
system.cpu.ipc                               0.049495                       # IPC: Instructions Per Cycle ((Count/Cycle))
system.cpu.totalIpc                          0.049495                       # IPC: Total IPC of All Threads ((Count/Cycle))
system.cpu.intRegfileReads                   22752471                       # Number of integer regfile reads (Count)
system.cpu.intRegfileWrites                  11382834                       # Number of integer regfile writes (Count)
system.cpu.fpRegfileReads                     4376549                       # Number of floating regfile reads (Count)
system.cpu.fpRegfileWrites                    2000740                       # Number of floating regfile writes (Count)
system.cpu.ccRegfileReads                    11363063                       # number of cc regfile reads (Count)
system.cpu.ccRegfileWrites                    9088313                       # number of cc regfile writes (Count)
system.cpu.miscRegfileReads                   6883601                       # number of misc regfile reads (Count)
system.cpu.MemDepUnit__0.insertedLoads         129921                       # Number of loads inserted to the mem dependence unit. (Count)
system.cpu.MemDepUnit__0.insertedStores       2207613                       # Number of stores inserted to the mem dependence unit. (Count)
system.cpu.MemDepUnit__0.conflictingLoads           34                       # Number of conflicting loads. (Count)
system.cpu.MemDepUnit__0.conflictingStores           13                       # Number of conflicting stores. (Count)
system.cpu.MemDepUnit__1.insertedLoads              0                       # Number of loads inserted to the mem dependence unit. (Count)
system.cpu.MemDepUnit__1.insertedStores             0                       # Number of stores inserted to the mem dependence unit. (Count)
system.cpu.MemDepUnit__1.conflictingLoads            0                       # Number of conflicting loads. (Count)
system.cpu.MemDepUnit__1.conflictingStores            0                       # Number of conflicting stores. (Count)
system.cpu.MemDepUnit__2.insertedLoads              0                       # Number of loads inserted to the mem dependence unit. (Count)
system.cpu.MemDepUnit__2.insertedStores             0                       # Number of stores inserted to the mem dependence unit. (Count)
system.cpu.MemDepUnit__2.conflictingLoads            0                       # Number of conflicting loads. (Count)
system.cpu.MemDepUnit__2.conflictingStores            0                       # Number of conflicting stores. (Count)
system.cpu.MemDepUnit__3.insertedLoads              0                       # Number of loads inserted to the mem dependence unit. (Count)
system.cpu.MemDepUnit__3.insertedStores             0                       # Number of stores inserted to the mem dependence unit. (Count)
system.cpu.MemDepUnit__3.conflictingLoads            0                       # Number of conflicting loads. (Count)
system.cpu.MemDepUnit__3.conflictingStores            0                       # Number of conflicting stores. (Count)
system.cpu.branchPred.lookups                 2279671                       # Number of BP lookups (Count)
system.cpu.branchPred.condPredicted           2278356                       # Number of conditional branches predicted (Count)
system.cpu.branchPred.condIncorrect              1069                       # Number of conditional branches incorrect (Count)
system.cpu.branchPred.BTBLookups              2275121                       # Number of BTB lookups (Count)
system.cpu.branchPred.BTBHits                 2274366                       # Number of BTB hits (Count)
system.cpu.branchPred.BTBHitRatio            0.999668                       # BTB Hit Ratio (Ratio)
system.cpu.branchPred.RASUsed                     297                       # Number of times the RAS was used to get a target. (Count)
system.cpu.branchPred.RASIncorrect                  0                       # Number of incorrect RAS predictions. (Count)
system.cpu.branchPred.indirectLookups             365                       # Number of indirect predictor lookups. (Count)
system.cpu.branchPred.indirectHits                 16                       # Number of indirect target hits. (Count)
system.cpu.branchPred.indirectMisses              349                       # Number of indirect misses. (Count)
system.cpu.branchPred.indirectMispredicted           97                       # Number of mispredicted indirect branches. (Count)
system.cpu.commit.commitSquashedInsts           75218                       # The number of squashed insts skipped by commit (Count)
system.cpu.commit.commitNonSpecStalls              12                       # The number of times commit has been forced to stall to communicate backwards (Count)
system.cpu.commit.branchMispredicts              1088                       # The number of times a branch was mispredicted (Count)
system.cpu.commit.numCommittedDist::samples    201888865                       # Number of insts commited each cycle (Count)
system.cpu.commit.numCommittedDist::mean     0.088139                       # Number of insts commited each cycle (Count)
system.cpu.commit.numCommittedDist::stdev     0.593463                       # Number of insts commited each cycle (Count)
system.cpu.commit.numCommittedDist::underflows            0      0.00%      0.00% # Number of insts commited each cycle (Count)
system.cpu.commit.numCommittedDist::0       196271187     97.22%     97.22% # Number of insts commited each cycle (Count)
system.cpu.commit.numCommittedDist::1          274324      0.14%     97.35% # Number of insts commited each cycle (Count)
system.cpu.commit.numCommittedDist::2         2292267      1.14%     98.49% # Number of insts commited each cycle (Count)
system.cpu.commit.numCommittedDist::3         1472496      0.73%     99.22% # Number of insts commited each cycle (Count)
system.cpu.commit.numCommittedDist::4          722773      0.36%     99.58% # Number of insts commited each cycle (Count)
system.cpu.commit.numCommittedDist::5          299133      0.15%     99.72% # Number of insts commited each cycle (Count)
system.cpu.commit.numCommittedDist::6           70421      0.03%     99.76% # Number of insts commited each cycle (Count)
system.cpu.commit.numCommittedDist::7          181422      0.09%     99.85% # Number of insts commited each cycle (Count)
system.cpu.commit.numCommittedDist::8          304842      0.15%    100.00% # Number of insts commited each cycle (Count)
system.cpu.commit.numCommittedDist::overflows            0      0.00%    100.00% # Number of insts commited each cycle (Count)
system.cpu.commit.numCommittedDist::min_value            0                       # Number of insts commited each cycle (Count)
system.cpu.commit.numCommittedDist::max_value            8                       # Number of insts commited each cycle (Count)
system.cpu.commit.numCommittedDist::total    201888865                       # Number of insts commited each cycle (Count)
system.cpu.commit.instsCommitted              9995995                       # Number of instructions committed (Count)
system.cpu.commit.opsCommitted               17794319                       # Number of ops (including micro ops) committed (Count)
system.cpu.commit.memRefs                     2327019                       # Number of memory references committed (Count)
system.cpu.commit.loads                        127545                       # Number of loads committed (Count)
system.cpu.commit.amos                              0                       # Number of atomic instructions committed (Count)
system.cpu.commit.membars                           8                       # Number of memory barriers committed (Count)
system.cpu.commit.branches                    2264231                       # Number of branches committed (Count)
system.cpu.commit.vectorInstructions                0                       # Number of committed Vector instructions. (Count)
system.cpu.commit.floating                    2001126                       # Number of committed floating point instructions. (Count)
system.cpu.commit.integer                    15918570                       # Number of committed integer instructions. (Count)
system.cpu.commit.functionCalls                   148                       # Number of function calls committed. (Count)
system.cpu.commit.committedInstType_0::No_OpClass          192      0.00%      0.00% # Class of committed instruction (Count)
system.cpu.commit.committedInstType_0::IntAlu     13965598     78.48%     78.48% # Class of committed instruction (Count)
system.cpu.commit.committedInstType_0::IntMult         1004      0.01%     78.49% # Class of committed instruction (Count)
system.cpu.commit.committedInstType_0::IntDiv           21      0.00%     78.49% # Class of committed instruction (Count)
system.cpu.commit.committedInstType_0::FloatAdd          135      0.00%     78.49% # Class of committed instruction (Count)
system.cpu.commit.committedInstType_0::FloatCmp            0      0.00%     78.49% # Class of committed instruction (Count)
system.cpu.commit.committedInstType_0::FloatCvt            0      0.00%     78.49% # Class of committed instruction (Count)
system.cpu.commit.committedInstType_0::FloatMult            0      0.00%     78.49% # Class of committed instruction (Count)
system.cpu.commit.committedInstType_0::FloatMultAcc            0      0.00%     78.49% # Class of committed instruction (Count)
system.cpu.commit.committedInstType_0::FloatDiv            0      0.00%     78.49% # Class of committed instruction (Count)
system.cpu.commit.committedInstType_0::FloatMisc            0      0.00%     78.49% # Class of committed instruction (Count)
system.cpu.commit.committedInstType_0::FloatSqrt            0      0.00%     78.49% # Class of committed instruction (Count)
system.cpu.commit.committedInstType_0::SimdAdd       499996      2.81%     81.30% # Class of committed instruction (Count)
system.cpu.commit.committedInstType_0::SimdAddAcc            0      0.00%     81.30% # Class of committed instruction (Count)
system.cpu.commit.committedInstType_0::SimdAlu       125100      0.70%     82.00% # Class of committed instruction (Count)
system.cpu.commit.committedInstType_0::SimdCmp            0      0.00%     82.00% # Class of committed instruction (Count)
system.cpu.commit.committedInstType_0::SimdCvt       125044      0.70%     82.71% # Class of committed instruction (Count)
system.cpu.commit.committedInstType_0::SimdMisc       750204      4.22%     86.92% # Class of committed instruction (Count)
system.cpu.commit.committedInstType_0::SimdMult            0      0.00%     86.92% # Class of committed instruction (Count)
system.cpu.commit.committedInstType_0::SimdMultAcc            0      0.00%     86.92% # Class of committed instruction (Count)
system.cpu.commit.committedInstType_0::SimdShift            6      0.00%     86.92% # Class of committed instruction (Count)
system.cpu.commit.committedInstType_0::SimdShiftAcc            0      0.00%     86.92% # Class of committed instruction (Count)
system.cpu.commit.committedInstType_0::SimdDiv            0      0.00%     86.92% # Class of committed instruction (Count)
system.cpu.commit.committedInstType_0::SimdSqrt            0      0.00%     86.92% # Class of committed instruction (Count)
system.cpu.commit.committedInstType_0::SimdFloatAdd            0      0.00%     86.92% # Class of committed instruction (Count)
system.cpu.commit.committedInstType_0::SimdFloatAlu            0      0.00%     86.92% # Class of committed instruction (Count)
system.cpu.commit.committedInstType_0::SimdFloatCmp            0      0.00%     86.92% # Class of committed instruction (Count)
system.cpu.commit.committedInstType_0::SimdFloatCvt            0      0.00%     86.92% # Class of committed instruction (Count)
system.cpu.commit.committedInstType_0::SimdFloatDiv            0      0.00%     86.92% # Class of committed instruction (Count)
system.cpu.commit.committedInstType_0::SimdFloatMisc            0      0.00%     86.92% # Class of committed instruction (Count)
system.cpu.commit.committedInstType_0::SimdFloatMult            0      0.00%     86.92% # Class of committed instruction (Count)
system.cpu.commit.committedInstType_0::SimdFloatMultAcc            0      0.00%     86.92% # Class of committed instruction (Count)
system.cpu.commit.committedInstType_0::SimdFloatSqrt            0      0.00%     86.92% # Class of committed instruction (Count)
system.cpu.commit.committedInstType_0::SimdReduceAdd            0      0.00%     86.92% # Class of committed instruction (Count)
system.cpu.commit.committedInstType_0::SimdReduceAlu            0      0.00%     86.92% # Class of committed instruction (Count)
system.cpu.commit.committedInstType_0::SimdReduceCmp            0      0.00%     86.92% # Class of committed instruction (Count)
system.cpu.commit.committedInstType_0::SimdFloatReduceAdd            0      0.00%     86.92% # Class of committed instruction (Count)
system.cpu.commit.committedInstType_0::SimdFloatReduceCmp            0      0.00%     86.92% # Class of committed instruction (Count)
system.cpu.commit.committedInstType_0::SimdAes            0      0.00%     86.92% # Class of committed instruction (Count)
system.cpu.commit.committedInstType_0::SimdAesMix            0      0.00%     86.92% # Class of committed instruction (Count)
system.cpu.commit.committedInstType_0::SimdSha1Hash            0      0.00%     86.92% # Class of committed instruction (Count)
system.cpu.commit.committedInstType_0::SimdSha1Hash2            0      0.00%     86.92% # Class of committed instruction (Count)
system.cpu.commit.committedInstType_0::SimdSha256Hash            0      0.00%     86.92% # Class of committed instruction (Count)
system.cpu.commit.committedInstType_0::SimdSha256Hash2            0      0.00%     86.92% # Class of committed instruction (Count)
system.cpu.commit.committedInstType_0::SimdShaSigma2            0      0.00%     86.92% # Class of committed instruction (Count)
system.cpu.commit.committedInstType_0::SimdShaSigma3            0      0.00%     86.92% # Class of committed instruction (Count)
system.cpu.commit.committedInstType_0::SimdPredAlu            0      0.00%     86.92% # Class of committed instruction (Count)
system.cpu.commit.committedInstType_0::MemRead         2499      0.01%     86.94% # Class of committed instruction (Count)
system.cpu.commit.committedInstType_0::MemWrite      2199016     12.36%     99.29% # Class of committed instruction (Count)
system.cpu.commit.committedInstType_0::FloatMemRead       125046      0.70%    100.00% # Class of committed instruction (Count)
system.cpu.commit.committedInstType_0::FloatMemWrite          458      0.00%    100.00% # Class of committed instruction (Count)
system.cpu.commit.committedInstType_0::IprAccess            0      0.00%    100.00% # Class of committed instruction (Count)
system.cpu.commit.committedInstType_0::InstPrefetch            0      0.00%    100.00% # Class of committed instruction (Count)
system.cpu.commit.committedInstType_0::total     17794319                       # Class of committed instruction (Count)
system.cpu.commit.commitEligibleSamples        304842                       # number cycles where commit BW limit reached (Cycle)
system.cpu.dcache.demandHits::cpu.data        1501928                       # number of demand (read+write) hits (Count)
system.cpu.dcache.demandHits::total           1501928                       # number of demand (read+write) hits (Count)
system.cpu.dcache.overallHits::cpu.data       1501928                       # number of overall hits (Count)
system.cpu.dcache.overallHits::total          1501928                       # number of overall hits (Count)
system.cpu.dcache.demandMisses::cpu.data       842269                       # number of demand (read+write) misses (Count)
system.cpu.dcache.demandMisses::total          842269                       # number of demand (read+write) misses (Count)
system.cpu.dcache.overallMisses::cpu.data       842269                       # number of overall misses (Count)
system.cpu.dcache.overallMisses::total         842269                       # number of overall misses (Count)
system.cpu.dcache.demandMissLatency::cpu.data  53162102999                       # number of demand (read+write) miss ticks (Tick)
system.cpu.dcache.demandMissLatency::total  53162102999                       # number of demand (read+write) miss ticks (Tick)
system.cpu.dcache.overallMissLatency::cpu.data  53162102999                       # number of overall miss ticks (Tick)
system.cpu.dcache.overallMissLatency::total  53162102999                       # number of overall miss ticks (Tick)
system.cpu.dcache.demandAccesses::cpu.data      2344197                       # number of demand (read+write) accesses (Count)
system.cpu.dcache.demandAccesses::total       2344197                       # number of demand (read+write) accesses (Count)
system.cpu.dcache.overallAccesses::cpu.data      2344197                       # number of overall (read+write) accesses (Count)
system.cpu.dcache.overallAccesses::total      2344197                       # number of overall (read+write) accesses (Count)
system.cpu.dcache.demandMissRate::cpu.data     0.359300                       # miss rate for demand accesses (Ratio)
system.cpu.dcache.demandMissRate::total      0.359300                       # miss rate for demand accesses (Ratio)
system.cpu.dcache.overallMissRate::cpu.data     0.359300                       # miss rate for overall accesses (Ratio)
system.cpu.dcache.overallMissRate::total     0.359300                       # miss rate for overall accesses (Ratio)
system.cpu.dcache.demandAvgMissLatency::cpu.data 63117.724859                       # average overall miss latency ((Cycle/Count))
system.cpu.dcache.demandAvgMissLatency::total 63117.724859                       # average overall miss latency ((Cycle/Count))
system.cpu.dcache.overallAvgMissLatency::cpu.data 63117.724859                       # average overall miss latency ((Cycle/Count))
system.cpu.dcache.overallAvgMissLatency::total 63117.724859                       # average overall miss latency ((Cycle/Count))
system.cpu.dcache.blockedCycles::no_mshrs         1395                       # number of cycles access was blocked (Cycle)
system.cpu.dcache.blockedCycles::no_targets            0                       # number of cycles access was blocked (Cycle)
system.cpu.dcache.blockedCauses::no_mshrs           15                       # number of times access was blocked (Count)
system.cpu.dcache.blockedCauses::no_targets            0                       # number of times access was blocked (Count)
system.cpu.dcache.avgBlocked::no_mshrs             93                       # average number of cycles each access was blocked ((Cycle/Count))
system.cpu.dcache.avgBlocked::no_targets          nan                       # average number of cycles each access was blocked ((Cycle/Count))
system.cpu.dcache.writebacks::writebacks       762743                       # number of writebacks (Count)
system.cpu.dcache.writebacks::total            762743                       # number of writebacks (Count)
system.cpu.dcache.demandMshrHits::cpu.data        63638                       # number of demand (read+write) MSHR hits (Count)
system.cpu.dcache.demandMshrHits::total         63638                       # number of demand (read+write) MSHR hits (Count)
system.cpu.dcache.overallMshrHits::cpu.data        63638                       # number of overall MSHR hits (Count)
system.cpu.dcache.overallMshrHits::total        63638                       # number of overall MSHR hits (Count)
system.cpu.dcache.demandMshrMisses::cpu.data       778631                       # number of demand (read+write) MSHR misses (Count)
system.cpu.dcache.demandMshrMisses::total       778631                       # number of demand (read+write) MSHR misses (Count)
system.cpu.dcache.overallMshrMisses::cpu.data       778631                       # number of overall MSHR misses (Count)
system.cpu.dcache.overallMshrMisses::total       778631                       # number of overall MSHR misses (Count)
system.cpu.dcache.demandMshrMissLatency::cpu.data  49271873249                       # number of demand (read+write) MSHR miss ticks (Tick)
system.cpu.dcache.demandMshrMissLatency::total  49271873249                       # number of demand (read+write) MSHR miss ticks (Tick)
system.cpu.dcache.overallMshrMissLatency::cpu.data  49271873249                       # number of overall MSHR miss ticks (Tick)
system.cpu.dcache.overallMshrMissLatency::total  49271873249                       # number of overall MSHR miss ticks (Tick)
system.cpu.dcache.demandMshrMissRate::cpu.data     0.332153                       # mshr miss ratio for demand accesses (Ratio)
system.cpu.dcache.demandMshrMissRate::total     0.332153                       # mshr miss ratio for demand accesses (Ratio)
system.cpu.dcache.overallMshrMissRate::cpu.data     0.332153                       # mshr miss ratio for overall accesses (Ratio)
system.cpu.dcache.overallMshrMissRate::total     0.332153                       # mshr miss ratio for overall accesses (Ratio)
system.cpu.dcache.demandAvgMshrMissLatency::cpu.data 63280.133014                       # average overall mshr miss latency ((Cycle/Count))
system.cpu.dcache.demandAvgMshrMissLatency::total 63280.133014                       # average overall mshr miss latency ((Cycle/Count))
system.cpu.dcache.overallAvgMshrMissLatency::cpu.data 63280.133014                       # average overall mshr miss latency ((Cycle/Count))
system.cpu.dcache.overallAvgMshrMissLatency::total 63280.133014                       # average overall mshr miss latency ((Cycle/Count))
system.cpu.dcache.replacements                 777607                       # number of replacements (Count)
system.cpu.dcache.ReadReq.hits::cpu.data        65165                       # number of ReadReq hits (Count)
system.cpu.dcache.ReadReq.hits::total           65165                       # number of ReadReq hits (Count)
system.cpu.dcache.ReadReq.misses::cpu.data        79557                       # number of ReadReq misses (Count)
system.cpu.dcache.ReadReq.misses::total         79557                       # number of ReadReq misses (Count)
system.cpu.dcache.ReadReq.missLatency::cpu.data   4368577500                       # number of ReadReq miss ticks (Tick)
system.cpu.dcache.ReadReq.missLatency::total   4368577500                       # number of ReadReq miss ticks (Tick)
system.cpu.dcache.ReadReq.accesses::cpu.data       144722                       # number of ReadReq accesses(hits+misses) (Count)
system.cpu.dcache.ReadReq.accesses::total       144722                       # number of ReadReq accesses(hits+misses) (Count)
system.cpu.dcache.ReadReq.missRate::cpu.data     0.549723                       # miss rate for ReadReq accesses (Ratio)
system.cpu.dcache.ReadReq.missRate::total     0.549723                       # miss rate for ReadReq accesses (Ratio)
system.cpu.dcache.ReadReq.avgMissLatency::cpu.data 54911.290018                       # average ReadReq miss latency ((Tick/Count))
system.cpu.dcache.ReadReq.avgMissLatency::total 54911.290018                       # average ReadReq miss latency ((Tick/Count))
system.cpu.dcache.ReadReq.mshrHits::cpu.data        63636                       # number of ReadReq MSHR hits (Count)
system.cpu.dcache.ReadReq.mshrHits::total        63636                       # number of ReadReq MSHR hits (Count)
system.cpu.dcache.ReadReq.mshrMisses::cpu.data        15921                       # number of ReadReq MSHR misses (Count)
system.cpu.dcache.ReadReq.mshrMisses::total        15921                       # number of ReadReq MSHR misses (Count)
system.cpu.dcache.ReadReq.mshrMissLatency::cpu.data    859851750                       # number of ReadReq MSHR miss ticks (Tick)
system.cpu.dcache.ReadReq.mshrMissLatency::total    859851750                       # number of ReadReq MSHR miss ticks (Tick)
system.cpu.dcache.ReadReq.mshrMissRate::cpu.data     0.110011                       # mshr miss rate for ReadReq accesses (Ratio)
system.cpu.dcache.ReadReq.mshrMissRate::total     0.110011                       # mshr miss rate for ReadReq accesses (Ratio)
system.cpu.dcache.ReadReq.avgMshrMissLatency::cpu.data 54007.395892                       # average ReadReq mshr miss latency ((Tick/Count))
system.cpu.dcache.ReadReq.avgMshrMissLatency::total 54007.395892                       # average ReadReq mshr miss latency ((Tick/Count))
system.cpu.dcache.WriteReq.hits::cpu.data      1436763                       # number of WriteReq hits (Count)
system.cpu.dcache.WriteReq.hits::total        1436763                       # number of WriteReq hits (Count)
system.cpu.dcache.WriteReq.misses::cpu.data       762712                       # number of WriteReq misses (Count)
system.cpu.dcache.WriteReq.misses::total       762712                       # number of WriteReq misses (Count)
system.cpu.dcache.WriteReq.missLatency::cpu.data  48793525499                       # number of WriteReq miss ticks (Tick)
system.cpu.dcache.WriteReq.missLatency::total  48793525499                       # number of WriteReq miss ticks (Tick)
system.cpu.dcache.WriteReq.accesses::cpu.data      2199475                       # number of WriteReq accesses(hits+misses) (Count)
system.cpu.dcache.WriteReq.accesses::total      2199475                       # number of WriteReq accesses(hits+misses) (Count)
system.cpu.dcache.WriteReq.missRate::cpu.data     0.346770                       # miss rate for WriteReq accesses (Ratio)
system.cpu.dcache.WriteReq.missRate::total     0.346770                       # miss rate for WriteReq accesses (Ratio)
system.cpu.dcache.WriteReq.avgMissLatency::cpu.data 63973.722059                       # average WriteReq miss latency ((Tick/Count))
system.cpu.dcache.WriteReq.avgMissLatency::total 63973.722059                       # average WriteReq miss latency ((Tick/Count))
system.cpu.dcache.WriteReq.mshrHits::cpu.data            2                       # number of WriteReq MSHR hits (Count)
system.cpu.dcache.WriteReq.mshrHits::total            2                       # number of WriteReq MSHR hits (Count)
system.cpu.dcache.WriteReq.mshrMisses::cpu.data       762710                       # number of WriteReq MSHR misses (Count)
system.cpu.dcache.WriteReq.mshrMisses::total       762710                       # number of WriteReq MSHR misses (Count)
system.cpu.dcache.WriteReq.mshrMissLatency::cpu.data  48412021499                       # number of WriteReq MSHR miss ticks (Tick)
system.cpu.dcache.WriteReq.mshrMissLatency::total  48412021499                       # number of WriteReq MSHR miss ticks (Tick)
system.cpu.dcache.WriteReq.mshrMissRate::cpu.data     0.346769                       # mshr miss rate for WriteReq accesses (Ratio)
system.cpu.dcache.WriteReq.mshrMissRate::total     0.346769                       # mshr miss rate for WriteReq accesses (Ratio)
system.cpu.dcache.WriteReq.avgMshrMissLatency::cpu.data 63473.694457                       # average WriteReq mshr miss latency ((Tick/Count))
system.cpu.dcache.WriteReq.avgMshrMissLatency::total 63473.694457                       # average WriteReq mshr miss latency ((Tick/Count))
system.cpu.dcache.power_state.pwrStateResidencyTicks::UNDEFINED  50489781500                       # Cumulative time (in ticks) in various power states (Tick)
system.cpu.dcache.tags.tagsInUse          1023.060545                       # Average ticks per tags in use ((Tick/Count))
system.cpu.dcache.tags.totalRefs              2280559                       # Total number of references to valid blocks. (Count)
system.cpu.dcache.tags.sampledRefs             778631                       # Sample count of references to valid blocks. (Count)
system.cpu.dcache.tags.avgRefs               2.928934                       # Average number of references to valid blocks. ((Count/Count))
system.cpu.dcache.tags.warmupTick              143000                       # The tick when the warmup percentage was hit. (Tick)
system.cpu.dcache.tags.occupancies::cpu.data  1023.060545                       # Average occupied blocks per tick, per requestor ((Count/Tick))
system.cpu.dcache.tags.avgOccs::cpu.data     0.999083                       # Average percentage of cache occupancy ((Ratio/Tick))
system.cpu.dcache.tags.avgOccs::total        0.999083                       # Average percentage of cache occupancy ((Ratio/Tick))
system.cpu.dcache.tags.occupanciesTaskId::1024         1024                       # Occupied blocks per task id (Count)
system.cpu.dcache.tags.ageTaskId_1024::0          159                       # Occupied blocks per task id, per block age (Count)
system.cpu.dcache.tags.ageTaskId_1024::1          865                       # Occupied blocks per task id, per block age (Count)
system.cpu.dcache.tags.ratioOccsTaskId::1024            1                       # Ratio of occupied blocks and all blocks, per task id (Ratio)
system.cpu.dcache.tags.tagAccesses            5467025                       # Number of tag accesses (Count)
system.cpu.dcache.tags.dataAccesses           5467025                       # Number of data accesses (Count)
system.cpu.dcache.tags.power_state.pwrStateResidencyTicks::UNDEFINED  50489781500                       # Cumulative time (in ticks) in various power states (Tick)
system.cpu.decode.idleCycles                   746155                       # Number of cycles decode is idle (Cycle)
system.cpu.decode.blockedCycles             198819909                       # Number of cycles decode is blocked (Cycle)
system.cpu.decode.runCycles                    756717                       # Number of cycles decode is running (Cycle)
system.cpu.decode.unblockCycles               1574888                       # Number of cycles decode is unblocking (Cycle)
system.cpu.decode.squashCycles                   1355                       # Number of cycles decode is squashing (Cycle)
system.cpu.decode.branchResolved              2271107                       # Number of times decode resolved a branch (Count)
system.cpu.decode.branchMispred                   231                       # Number of times decode detected a branch misprediction (Count)
system.cpu.decode.decodedInsts               17880338                       # Number of instructions handled by decode (Count)
system.cpu.decode.squashedInsts                  1049                       # Number of squashed instructions handled by decode (Count)
system.cpu.dtb_walker_cache.blockedCycles::no_mshrs            0                       # number of cycles access was blocked (Cycle)
system.cpu.dtb_walker_cache.blockedCycles::no_targets            0                       # number of cycles access was blocked (Cycle)
system.cpu.dtb_walker_cache.blockedCauses::no_mshrs            0                       # number of times access was blocked (Count)
system.cpu.dtb_walker_cache.blockedCauses::no_targets            0                       # number of times access was blocked (Count)
system.cpu.dtb_walker_cache.avgBlocked::no_mshrs          nan                       # average number of cycles each access was blocked ((Cycle/Count))
system.cpu.dtb_walker_cache.avgBlocked::no_targets          nan                       # average number of cycles each access was blocked ((Cycle/Count))
system.cpu.dtb_walker_cache.replacements            0                       # number of replacements (Count)
system.cpu.dtb_walker_cache.power_state.pwrStateResidencyTicks::UNDEFINED  50489781500                       # Cumulative time (in ticks) in various power states (Tick)
system.cpu.dtb_walker_cache.tags.tagsInUse            0                       # Average ticks per tags in use ((Tick/Count))
system.cpu.dtb_walker_cache.tags.totalRefs            0                       # Total number of references to valid blocks. (Count)
system.cpu.dtb_walker_cache.tags.sampledRefs            0                       # Sample count of references to valid blocks. (Count)
system.cpu.dtb_walker_cache.tags.avgRefs          nan                       # Average number of references to valid blocks. ((Count/Count))
system.cpu.dtb_walker_cache.tags.warmupTick            0                       # The tick when the warmup percentage was hit. (Tick)
system.cpu.dtb_walker_cache.tags.tagAccesses            0                       # Number of tag accesses (Count)
system.cpu.dtb_walker_cache.tags.dataAccesses            0                       # Number of data accesses (Count)
system.cpu.dtb_walker_cache.tags.power_state.pwrStateResidencyTicks::UNDEFINED  50489781500                       # Cumulative time (in ticks) in various power states (Tick)
system.cpu.fetch.icacheStallCycles             212092                       # Number of cycles fetch is stalled on an Icache miss (Cycle)
system.cpu.fetch.insts                       10060278                       # Number of instructions fetch has processed (Count)
system.cpu.fetch.branches                     2279671                       # Number of branches that fetch encountered (Count)
system.cpu.fetch.predictedBranches            2274679                       # Number of branches that fetch has predicted taken (Count)
system.cpu.fetch.cycles                     201683630                       # Number of cycles fetch has run and was not squashing or blocked (Cycle)
system.cpu.fetch.squashCycles                    3144                       # Number of cycles fetch has spent squashing (Cycle)
system.cpu.fetch.miscStallCycles                  248                       # Number of cycles fetch has spent waiting on interrupts, or bad addresses, or out of MSHRs (Cycle)
system.cpu.fetch.pendingTrapStallCycles          1481                       # Number of stall cycles due to pending traps (Cycle)
system.cpu.fetch.pendingQuiesceStallCycles            1                       # Number of stall cycles due to pending quiesce instructions (Cycle)
system.cpu.fetch.cacheLines                    190365                       # Number of cache lines fetched (Count)
system.cpu.fetch.icacheSquashes                   348                       # Number of outstanding Icache misses that were squashed (Count)
system.cpu.fetch.nisnDist::samples          201899024                       # Number of instructions fetched each cycle (Total) (Count)
system.cpu.fetch.nisnDist::mean              0.088710                       # Number of instructions fetched each cycle (Total) (Count)
system.cpu.fetch.nisnDist::stdev             0.739172                       # Number of instructions fetched each cycle (Total) (Count)
system.cpu.fetch.nisnDist::underflows               0      0.00%      0.00% # Number of instructions fetched each cycle (Total) (Count)
system.cpu.fetch.nisnDist::0                198460655     98.30%     98.30% # Number of instructions fetched each cycle (Total) (Count)
system.cpu.fetch.nisnDist::1                   413296      0.20%     98.50% # Number of instructions fetched each cycle (Total) (Count)
system.cpu.fetch.nisnDist::2                   275523      0.14%     98.64% # Number of instructions fetched each cycle (Total) (Count)
system.cpu.fetch.nisnDist::3                   281205      0.14%     98.78% # Number of instructions fetched each cycle (Total) (Count)
system.cpu.fetch.nisnDist::4                   218890      0.11%     98.89% # Number of instructions fetched each cycle (Total) (Count)
system.cpu.fetch.nisnDist::5                   197559      0.10%     98.98% # Number of instructions fetched each cycle (Total) (Count)
system.cpu.fetch.nisnDist::6                   365706      0.18%     99.16% # Number of instructions fetched each cycle (Total) (Count)
system.cpu.fetch.nisnDist::7                  1444509      0.72%     99.88% # Number of instructions fetched each cycle (Total) (Count)
system.cpu.fetch.nisnDist::8                   241681      0.12%    100.00% # Number of instructions fetched each cycle (Total) (Count)
system.cpu.fetch.nisnDist::overflows                0      0.00%    100.00% # Number of instructions fetched each cycle (Total) (Count)
system.cpu.fetch.nisnDist::min_value                0                       # Number of instructions fetched each cycle (Total) (Count)
system.cpu.fetch.nisnDist::max_value                8                       # Number of instructions fetched each cycle (Total) (Count)
system.cpu.fetch.nisnDist::total            201899024                       # Number of instructions fetched each cycle (Total) (Count)
system.cpu.fetch.branchRate                  0.011288                       # Number of branch fetches per cycle (Ratio)
system.cpu.fetch.rate                        0.049813                       # Number of inst fetches per cycle ((Count/Cycle))
system.cpu.icache.demandHits::cpu.inst         189754                       # number of demand (read+write) hits (Count)
system.cpu.icache.demandHits::total            189754                       # number of demand (read+write) hits (Count)
system.cpu.icache.overallHits::cpu.inst        189754                       # number of overall hits (Count)
system.cpu.icache.overallHits::total           189754                       # number of overall hits (Count)
system.cpu.icache.demandMisses::cpu.inst          611                       # number of demand (read+write) misses (Count)
system.cpu.icache.demandMisses::total             611                       # number of demand (read+write) misses (Count)
system.cpu.icache.overallMisses::cpu.inst          611                       # number of overall misses (Count)
system.cpu.icache.overallMisses::total            611                       # number of overall misses (Count)
system.cpu.icache.demandMissLatency::cpu.inst     35107500                       # number of demand (read+write) miss ticks (Tick)
system.cpu.icache.demandMissLatency::total     35107500                       # number of demand (read+write) miss ticks (Tick)
system.cpu.icache.overallMissLatency::cpu.inst     35107500                       # number of overall miss ticks (Tick)
system.cpu.icache.overallMissLatency::total     35107500                       # number of overall miss ticks (Tick)
system.cpu.icache.demandAccesses::cpu.inst       190365                       # number of demand (read+write) accesses (Count)
system.cpu.icache.demandAccesses::total        190365                       # number of demand (read+write) accesses (Count)
system.cpu.icache.overallAccesses::cpu.inst       190365                       # number of overall (read+write) accesses (Count)
system.cpu.icache.overallAccesses::total       190365                       # number of overall (read+write) accesses (Count)
system.cpu.icache.demandMissRate::cpu.inst     0.003210                       # miss rate for demand accesses (Ratio)
system.cpu.icache.demandMissRate::total      0.003210                       # miss rate for demand accesses (Ratio)
system.cpu.icache.overallMissRate::cpu.inst     0.003210                       # miss rate for overall accesses (Ratio)
system.cpu.icache.overallMissRate::total     0.003210                       # miss rate for overall accesses (Ratio)
system.cpu.icache.demandAvgMissLatency::cpu.inst 57459.083470                       # average overall miss latency ((Cycle/Count))
system.cpu.icache.demandAvgMissLatency::total 57459.083470                       # average overall miss latency ((Cycle/Count))
system.cpu.icache.overallAvgMissLatency::cpu.inst 57459.083470                       # average overall miss latency ((Cycle/Count))
system.cpu.icache.overallAvgMissLatency::total 57459.083470                       # average overall miss latency ((Cycle/Count))
system.cpu.icache.blockedCycles::no_mshrs          239                       # number of cycles access was blocked (Cycle)
system.cpu.icache.blockedCycles::no_targets            0                       # number of cycles access was blocked (Cycle)
system.cpu.icache.blockedCauses::no_mshrs            2                       # number of times access was blocked (Count)
system.cpu.icache.blockedCauses::no_targets            0                       # number of times access was blocked (Count)
system.cpu.icache.avgBlocked::no_mshrs     119.500000                       # average number of cycles each access was blocked ((Cycle/Count))
system.cpu.icache.avgBlocked::no_targets          nan                       # average number of cycles each access was blocked ((Cycle/Count))
system.cpu.icache.writebacks::writebacks           17                       # number of writebacks (Count)
system.cpu.icache.writebacks::total                17                       # number of writebacks (Count)
system.cpu.icache.demandMshrHits::cpu.inst          135                       # number of demand (read+write) MSHR hits (Count)
system.cpu.icache.demandMshrHits::total           135                       # number of demand (read+write) MSHR hits (Count)
system.cpu.icache.overallMshrHits::cpu.inst          135                       # number of overall MSHR hits (Count)
system.cpu.icache.overallMshrHits::total          135                       # number of overall MSHR hits (Count)
system.cpu.icache.demandMshrMisses::cpu.inst          476                       # number of demand (read+write) MSHR misses (Count)
system.cpu.icache.demandMshrMisses::total          476                       # number of demand (read+write) MSHR misses (Count)
system.cpu.icache.overallMshrMisses::cpu.inst          476                       # number of overall MSHR misses (Count)
system.cpu.icache.overallMshrMisses::total          476                       # number of overall MSHR misses (Count)
system.cpu.icache.demandMshrMissLatency::cpu.inst     28568250                       # number of demand (read+write) MSHR miss ticks (Tick)
system.cpu.icache.demandMshrMissLatency::total     28568250                       # number of demand (read+write) MSHR miss ticks (Tick)
system.cpu.icache.overallMshrMissLatency::cpu.inst     28568250                       # number of overall MSHR miss ticks (Tick)
system.cpu.icache.overallMshrMissLatency::total     28568250                       # number of overall MSHR miss ticks (Tick)
system.cpu.icache.demandMshrMissRate::cpu.inst     0.002500                       # mshr miss ratio for demand accesses (Ratio)
system.cpu.icache.demandMshrMissRate::total     0.002500                       # mshr miss ratio for demand accesses (Ratio)
system.cpu.icache.overallMshrMissRate::cpu.inst     0.002500                       # mshr miss ratio for overall accesses (Ratio)
system.cpu.icache.overallMshrMissRate::total     0.002500                       # mshr miss ratio for overall accesses (Ratio)
system.cpu.icache.demandAvgMshrMissLatency::cpu.inst 60017.331933                       # average overall mshr miss latency ((Cycle/Count))
system.cpu.icache.demandAvgMshrMissLatency::total 60017.331933                       # average overall mshr miss latency ((Cycle/Count))
system.cpu.icache.overallAvgMshrMissLatency::cpu.inst 60017.331933                       # average overall mshr miss latency ((Cycle/Count))
system.cpu.icache.overallAvgMshrMissLatency::total 60017.331933                       # average overall mshr miss latency ((Cycle/Count))
system.cpu.icache.replacements                     17                       # number of replacements (Count)
system.cpu.icache.ReadReq.hits::cpu.inst       189754                       # number of ReadReq hits (Count)
system.cpu.icache.ReadReq.hits::total          189754                       # number of ReadReq hits (Count)
system.cpu.icache.ReadReq.misses::cpu.inst          611                       # number of ReadReq misses (Count)
system.cpu.icache.ReadReq.misses::total           611                       # number of ReadReq misses (Count)
system.cpu.icache.ReadReq.missLatency::cpu.inst     35107500                       # number of ReadReq miss ticks (Tick)
system.cpu.icache.ReadReq.missLatency::total     35107500                       # number of ReadReq miss ticks (Tick)
system.cpu.icache.ReadReq.accesses::cpu.inst       190365                       # number of ReadReq accesses(hits+misses) (Count)
system.cpu.icache.ReadReq.accesses::total       190365                       # number of ReadReq accesses(hits+misses) (Count)
system.cpu.icache.ReadReq.missRate::cpu.inst     0.003210                       # miss rate for ReadReq accesses (Ratio)
system.cpu.icache.ReadReq.missRate::total     0.003210                       # miss rate for ReadReq accesses (Ratio)
system.cpu.icache.ReadReq.avgMissLatency::cpu.inst 57459.083470                       # average ReadReq miss latency ((Tick/Count))
system.cpu.icache.ReadReq.avgMissLatency::total 57459.083470                       # average ReadReq miss latency ((Tick/Count))
system.cpu.icache.ReadReq.mshrHits::cpu.inst          135                       # number of ReadReq MSHR hits (Count)
system.cpu.icache.ReadReq.mshrHits::total          135                       # number of ReadReq MSHR hits (Count)
system.cpu.icache.ReadReq.mshrMisses::cpu.inst          476                       # number of ReadReq MSHR misses (Count)
system.cpu.icache.ReadReq.mshrMisses::total          476                       # number of ReadReq MSHR misses (Count)
system.cpu.icache.ReadReq.mshrMissLatency::cpu.inst     28568250                       # number of ReadReq MSHR miss ticks (Tick)
system.cpu.icache.ReadReq.mshrMissLatency::total     28568250                       # number of ReadReq MSHR miss ticks (Tick)
system.cpu.icache.ReadReq.mshrMissRate::cpu.inst     0.002500                       # mshr miss rate for ReadReq accesses (Ratio)
system.cpu.icache.ReadReq.mshrMissRate::total     0.002500                       # mshr miss rate for ReadReq accesses (Ratio)
system.cpu.icache.ReadReq.avgMshrMissLatency::cpu.inst 60017.331933                       # average ReadReq mshr miss latency ((Tick/Count))
system.cpu.icache.ReadReq.avgMshrMissLatency::total 60017.331933                       # average ReadReq mshr miss latency ((Tick/Count))
system.cpu.icache.power_state.pwrStateResidencyTicks::UNDEFINED  50489781500                       # Cumulative time (in ticks) in various power states (Tick)
system.cpu.icache.tags.tagsInUse           417.849439                       # Average ticks per tags in use ((Tick/Count))
system.cpu.icache.tags.totalRefs               190229                       # Total number of references to valid blocks. (Count)
system.cpu.icache.tags.sampledRefs                475                       # Sample count of references to valid blocks. (Count)
system.cpu.icache.tags.avgRefs             400.482105                       # Average number of references to valid blocks. ((Count/Count))
system.cpu.icache.tags.warmupTick               77000                       # The tick when the warmup percentage was hit. (Tick)
system.cpu.icache.tags.occupancies::cpu.inst   417.849439                       # Average occupied blocks per tick, per requestor ((Count/Tick))
system.cpu.icache.tags.avgOccs::cpu.inst     0.408056                       # Average percentage of cache occupancy ((Ratio/Tick))
system.cpu.icache.tags.avgOccs::total        0.408056                       # Average percentage of cache occupancy ((Ratio/Tick))
system.cpu.icache.tags.occupanciesTaskId::1024          458                       # Occupied blocks per task id (Count)
system.cpu.icache.tags.ageTaskId_1024::0           43                       # Occupied blocks per task id, per block age (Count)
system.cpu.icache.tags.ageTaskId_1024::2            1                       # Occupied blocks per task id, per block age (Count)
system.cpu.icache.tags.ageTaskId_1024::4          414                       # Occupied blocks per task id, per block age (Count)
system.cpu.icache.tags.ratioOccsTaskId::1024     0.447266                       # Ratio of occupied blocks and all blocks, per task id (Ratio)
system.cpu.icache.tags.tagAccesses             381205                       # Number of tag accesses (Count)
system.cpu.icache.tags.dataAccesses            381205                       # Number of data accesses (Count)
system.cpu.icache.tags.power_state.pwrStateResidencyTicks::UNDEFINED  50489781500                       # Cumulative time (in ticks) in various power states (Tick)
system.cpu.iew.idleCycles                           0                       # Number of cycles IEW is idle (Cycle)
system.cpu.iew.squashCycles                      1355                       # Number of cycles IEW is squashing (Cycle)
system.cpu.iew.blockCycles                    3138309                       # Number of cycles IEW is blocking (Cycle)
system.cpu.iew.unblockCycles                 77814323                       # Number of cycles IEW is unblocking (Cycle)
system.cpu.iew.dispatchedInsts               17868809                       # Number of instructions dispatched to IQ (Count)
system.cpu.iew.dispSquashedInsts                   95                       # Number of squashed instructions skipped by dispatch (Count)
system.cpu.iew.dispLoadInsts                   129921                       # Number of dispatched load instructions (Count)
system.cpu.iew.dispStoreInsts                 2207613                       # Number of dispatched store instructions (Count)
system.cpu.iew.dispNonSpecInsts                    12                       # Number of dispatched non-speculative instructions (Count)
system.cpu.iew.iqFullEvents                     46834                       # Number of times the IQ has become full, causing a stall (Count)
system.cpu.iew.lsqFullEvents                 77767617                       # Number of times the LSQ has become full, causing a stall (Count)
system.cpu.iew.memOrderViolationEvents             10                       # Number of memory order violations (Count)
system.cpu.iew.predictedTakenIncorrect            397                       # Number of branches that were predicted taken incorrectly (Count)
system.cpu.iew.predictedNotTakenIncorrect          872                       # Number of branches that were predicted not taken incorrectly (Count)
system.cpu.iew.branchMispredicts                 1269                       # Number of branch mispredicts detected at execute (Count)
system.cpu.iew.instsToCommit                 17862771                       # Cumulative count of insts sent to commit (Count)
system.cpu.iew.writebackCount                17855376                       # Cumulative count of insts written-back (Count)
system.cpu.iew.producerInst                  11854491                       # Number of instructions producing a value (Count)
system.cpu.iew.consumerInst                  18030832                       # Number of instructions consuming a value (Count)
system.cpu.iew.wbRate                        0.088411                       # Insts written-back per cycle ((Count/Cycle))
system.cpu.iew.wbFanout                      0.657457                       # Average fanout of values written-back ((Count/Count))
system.cpu.interrupts.clk_domain.clock           4000                       # Clock period in ticks (Tick)
system.cpu.itb_walker_cache.blockedCycles::no_mshrs            0                       # number of cycles access was blocked (Cycle)
system.cpu.itb_walker_cache.blockedCycles::no_targets            0                       # number of cycles access was blocked (Cycle)
system.cpu.itb_walker_cache.blockedCauses::no_mshrs            0                       # number of times access was blocked (Count)
system.cpu.itb_walker_cache.blockedCauses::no_targets            0                       # number of times access was blocked (Count)
system.cpu.itb_walker_cache.avgBlocked::no_mshrs          nan                       # average number of cycles each access was blocked ((Cycle/Count))
system.cpu.itb_walker_cache.avgBlocked::no_targets          nan                       # average number of cycles each access was blocked ((Cycle/Count))
system.cpu.itb_walker_cache.replacements            0                       # number of replacements (Count)
system.cpu.itb_walker_cache.power_state.pwrStateResidencyTicks::UNDEFINED  50489781500                       # Cumulative time (in ticks) in various power states (Tick)
system.cpu.itb_walker_cache.tags.tagsInUse            0                       # Average ticks per tags in use ((Tick/Count))
system.cpu.itb_walker_cache.tags.totalRefs            0                       # Total number of references to valid blocks. (Count)
system.cpu.itb_walker_cache.tags.sampledRefs            0                       # Sample count of references to valid blocks. (Count)
system.cpu.itb_walker_cache.tags.avgRefs          nan                       # Average number of references to valid blocks. ((Count/Count))
system.cpu.itb_walker_cache.tags.warmupTick            0                       # The tick when the warmup percentage was hit. (Tick)
system.cpu.itb_walker_cache.tags.tagAccesses            0                       # Number of tag accesses (Count)
system.cpu.itb_walker_cache.tags.dataAccesses            0                       # Number of data accesses (Count)
system.cpu.itb_walker_cache.tags.power_state.pwrStateResidencyTicks::UNDEFINED  50489781500                       # Cumulative time (in ticks) in various power states (Tick)
system.cpu.lsq0.forwLoads                         188                       # Number of loads that had data forwarded from stores (Count)
system.cpu.lsq0.squashedLoads                    2376                       # Number of loads squashed (Count)
system.cpu.lsq0.ignoredResponses                    4                       # Number of memory responses ignored because the instruction is squashed (Count)
system.cpu.lsq0.memOrderViolation                  10                       # Number of memory ordering violations (Count)
system.cpu.lsq0.squashedStores                   8139                       # Number of stores squashed (Count)
system.cpu.lsq0.rescheduledLoads                    0                       # Number of loads that were rescheduled (Count)
system.cpu.lsq0.blockedByCache                     10                       # Number of times an access to memory failed due to the cache being blocked (Count)
system.cpu.lsq0.loadToUse::samples             127545                       # Distribution of cycle latency between the first time a load is issued and its completion (Unspecified)
system.cpu.lsq0.loadToUse::mean            137.826179                       # Distribution of cycle latency between the first time a load is issued and its completion (Unspecified)
system.cpu.lsq0.loadToUse::stdev           130.714667                       # Distribution of cycle latency between the first time a load is issued and its completion (Unspecified)
system.cpu.lsq0.loadToUse::0-9                  48605     38.11%     38.11% # Distribution of cycle latency between the first time a load is issued and its completion (Unspecified)
system.cpu.lsq0.loadToUse::10-19                    4      0.00%     38.11% # Distribution of cycle latency between the first time a load is issued and its completion (Unspecified)
system.cpu.lsq0.loadToUse::30-39                    4      0.00%     38.11% # Distribution of cycle latency between the first time a load is issued and its completion (Unspecified)
system.cpu.lsq0.loadToUse::40-49                    1      0.00%     38.12% # Distribution of cycle latency between the first time a load is issued and its completion (Unspecified)
system.cpu.lsq0.loadToUse::50-59                    1      0.00%     38.12% # Distribution of cycle latency between the first time a load is issued and its completion (Unspecified)
system.cpu.lsq0.loadToUse::70-79                    1      0.00%     38.12% # Distribution of cycle latency between the first time a load is issued and its completion (Unspecified)
system.cpu.lsq0.loadToUse::80-89                   27      0.02%     38.14% # Distribution of cycle latency between the first time a load is issued and its completion (Unspecified)
system.cpu.lsq0.loadToUse::90-99                   20      0.02%     38.15% # Distribution of cycle latency between the first time a load is issued and its completion (Unspecified)
system.cpu.lsq0.loadToUse::100-109                  1      0.00%     38.15% # Distribution of cycle latency between the first time a load is issued and its completion (Unspecified)
[...]
system.mem_ctrls.dram.bwWrite::total        966840231                       # Write bandwidth from this memory ((Byte/Second))
system.mem_ctrls.dram.bwTotal::writebacks    966840231                       # Total bandwidth to/from this memory ((Byte/Second))
system.mem_ctrls.dram.bwTotal::cpu.inst        602102                       # Total bandwidth to/from this memory ((Byte/Second))
system.mem_ctrls.dram.bwTotal::cpu.data     986979593                       # Total bandwidth to/from this memory ((Byte/Second))
system.mem_ctrls.dram.bwTotal::total       1954421926                       # Total bandwidth to/from this memory ((Byte/Second))
system.mem_ctrls.dram.readBursts               779058                       # Number of DRAM read bursts (Count)
system.mem_ctrls.dram.writeBursts              762739                       # Number of DRAM write bursts (Count)
system.mem_ctrls.dram.perBankRdBursts::0        44746                       # Per bank write bursts (Count)
system.mem_ctrls.dram.perBankRdBursts::1        44800                       # Per bank write bursts (Count)
system.mem_ctrls.dram.perBankRdBursts::2        44685                       # Per bank write bursts (Count)
system.mem_ctrls.dram.perBankRdBursts::3        44687                       # Per bank write bursts (Count)
system.mem_ctrls.dram.perBankRdBursts::4        50893                       # Per bank write bursts (Count)
system.mem_ctrls.dram.perBankRdBursts::5        51022                       # Per bank write bursts (Count)
system.mem_ctrls.dram.perBankRdBursts::6        51052                       # Per bank write bursts (Count)
system.mem_ctrls.dram.perBankRdBursts::7        51038                       # Per bank write bursts (Count)
system.mem_ctrls.dram.perBankRdBursts::8        51075                       # Per bank write bursts (Count)
system.mem_ctrls.dram.perBankRdBursts::9        51019                       # Per bank write bursts (Count)
system.mem_ctrls.dram.perBankRdBursts::10        51020                       # Per bank write bursts (Count)
system.mem_ctrls.dram.perBankRdBursts::11        51043                       # Per bank write bursts (Count)
system.mem_ctrls.dram.perBankRdBursts::12        51041                       # Per bank write bursts (Count)
system.mem_ctrls.dram.perBankRdBursts::13        51011                       # Per bank write bursts (Count)
system.mem_ctrls.dram.perBankRdBursts::14        45208                       # Per bank write bursts (Count)
system.mem_ctrls.dram.perBankRdBursts::15        44718                       # Per bank write bursts (Count)
system.mem_ctrls.dram.perBankWrBursts::0        43774                       # Per bank write bursts (Count)
system.mem_ctrls.dram.perBankWrBursts::1        43832                       # Per bank write bursts (Count)
system.mem_ctrls.dram.perBankWrBursts::2        43778                       # Per bank write bursts (Count)
system.mem_ctrls.dram.perBankWrBursts::3        43786                       # Per bank write bursts (Count)
system.mem_ctrls.dram.perBankWrBursts::4        49701                       # Per bank write bursts (Count)
system.mem_ctrls.dram.perBankWrBursts::5        49989                       # Per bank write bursts (Count)
system.mem_ctrls.dram.perBankWrBursts::6        49973                       # Per bank write bursts (Count)
system.mem_ctrls.dram.perBankWrBursts::7        49984                       # Per bank write bursts (Count)
system.mem_ctrls.dram.perBankWrBursts::8        50033                       # Per bank write bursts (Count)
system.mem_ctrls.dram.perBankWrBursts::9        49979                       # Per bank write bursts (Count)
system.mem_ctrls.dram.perBankWrBursts::10        49987                       # Per bank write bursts (Count)
system.mem_ctrls.dram.perBankWrBursts::11        49990                       # Per bank write bursts (Count)
system.mem_ctrls.dram.perBankWrBursts::12        49971                       # Per bank write bursts (Count)
system.mem_ctrls.dram.perBankWrBursts::13        49974                       # Per bank write bursts (Count)
system.mem_ctrls.dram.perBankWrBursts::14        44231                       # Per bank write bursts (Count)
system.mem_ctrls.dram.perBankWrBursts::15        43757                       # Per bank write bursts (Count)
system.mem_ctrls.dram.totQLat              7340007250                       # Total ticks spent queuing (Tick)
system.mem_ctrls.dram.totBusLat            3895290000                       # Total ticks spent in databus transfers (Tick)
system.mem_ctrls.dram.totMemAccLat        21947344750                       # Total ticks spent from burst creation until serviced by the DRAM (Tick)
system.mem_ctrls.dram.avgQLat                 9421.64                       # Average queueing delay per DRAM burst ((Tick/Count))
system.mem_ctrls.dram.avgBusLat               5000.00                       # Average bus latency per DRAM burst ((Tick/Count))
system.mem_ctrls.dram.avgMemAccLat           28171.64                       # Average memory access latency per DRAM burst ((Tick/Count))
system.mem_ctrls.dram.readRowHits              714753                       # Number of row buffer hits during reads (Count)
system.mem_ctrls.dram.writeRowHits             654538                       # Number of row buffer hits during writes (Count)
system.mem_ctrls.dram.readRowHitRate            91.75                       # Row buffer hit rate for reads (Ratio)
system.mem_ctrls.dram.writeRowHitRate           85.81                       # Row buffer hit rate for writes (Ratio)
system.mem_ctrls.dram.bytesPerActivate::samples       172493                       # Bytes accessed per row activation (Byte)
system.mem_ctrls.dram.bytesPerActivate::mean   572.032210                       # Bytes accessed per row activation (Byte)
system.mem_ctrls.dram.bytesPerActivate::gmean   386.673280                       # Bytes accessed per row activation (Byte)
system.mem_ctrls.dram.bytesPerActivate::stdev   391.931355                       # Bytes accessed per row activation (Byte)
system.mem_ctrls.dram.bytesPerActivate::0-127        25319     14.68%     14.68% # Bytes accessed per row activation (Byte)
system.mem_ctrls.dram.bytesPerActivate::128-255        28314     16.41%     31.09% # Bytes accessed per row activation (Byte)
system.mem_ctrls.dram.bytesPerActivate::256-383        16030      9.29%     40.39% # Bytes accessed per row activation (Byte)
system.mem_ctrls.dram.bytesPerActivate::384-511        11394      6.61%     46.99% # Bytes accessed per row activation (Byte)
system.mem_ctrls.dram.bytesPerActivate::512-639         9843      5.71%     52.70% # Bytes accessed per row activation (Byte)
system.mem_ctrls.dram.bytesPerActivate::640-767         9157      5.31%     58.01% # Bytes accessed per row activation (Byte)
system.mem_ctrls.dram.bytesPerActivate::768-895         7270      4.21%     62.22% # Bytes accessed per row activation (Byte)
system.mem_ctrls.dram.bytesPerActivate::896-1023         5865      3.40%     65.62% # Bytes accessed per row activation (Byte)
system.mem_ctrls.dram.bytesPerActivate::1024-1151        59301     34.38%    100.00% # Bytes accessed per row activation (Byte)
system.mem_ctrls.dram.bytesPerActivate::total       172493                       # Bytes accessed per row activation (Byte)
system.mem_ctrls.dram.bytesRead              49859712                       # Total bytes read (Byte)
system.mem_ctrls.dram.bytesWritten           48815296                       # Total bytes written (Byte)
system.mem_ctrls.dram.avgRdBW              987.520851                       # Average DRAM read bandwidth in MiBytes/s ((Byte/Second))
system.mem_ctrls.dram.avgWrBW              966.835160                       # Average DRAM write bandwidth in MiBytes/s ((Byte/Second))
system.mem_ctrls.dram.peakBW                 12800.00                       # Theoretical peak bandwidth in MiByte/s ((Byte/Second))
system.mem_ctrls.dram.busUtil                   15.27                       # Data bus utilization in percentage (Ratio)
system.mem_ctrls.dram.busUtilRead                7.72                       # Data bus utilization in percentage for reads (Ratio)
system.mem_ctrls.dram.busUtilWrite               7.55                       # Data bus utilization in percentage for writes (Ratio)
system.mem_ctrls.dram.pageHitRate               88.81                       # Row buffer hit rate, read and write combined (Ratio)
system.mem_ctrls.dram.power_state.pwrStateResidencyTicks::UNDEFINED  50489781500                       # Cumulative time (in ticks) in various power states (Tick)
system.mem_ctrls.dram.rank0.actEnergy       602401800                       # Energy for activate commands per rank (pJ) (Joule)
system.mem_ctrls.dram.rank0.preEnergy       320161380                       # Energy for precharge commands per rank (pJ) (Joule)
system.mem_ctrls.dram.rank0.readEnergy     2734070220                       # Energy for read commands per rank (pJ) (Joule)
system.mem_ctrls.dram.rank0.writeEnergy    1956544740                       # Energy for write commands per rank (pJ) (Joule)
system.mem_ctrls.dram.rank0.refreshEnergy 3985325760.000000                       # Energy for refresh commands per rank (pJ) (Joule)
system.mem_ctrls.dram.rank0.actBackEnergy  19905010470                       # Energy for active background per rank (pJ) (Joule)
system.mem_ctrls.dram.rank0.preBackEnergy   2625962400                       # Energy for precharge background per rank (pJ) (Joule)
system.mem_ctrls.dram.rank0.actPowerDownEnergy            0                       # Energy for active power-down per rank (pJ) (Joule)
system.mem_ctrls.dram.rank0.prePowerDownEnergy            0                       # Energy for precharge power-down per rank (pJ) (Joule)
system.mem_ctrls.dram.rank0.selfRefreshEnergy            0                       # Energy for self refresh per rank (pJ) (Joule)
system.mem_ctrls.dram.rank0.totalEnergy   32129476770                       # Total energy per rank (pJ) (Joule)
system.mem_ctrls.dram.rank0.averagePower   636.356027                       # Core power per rank (mW) (Watt)
system.mem_ctrls.dram.rank0.totalIdleTime            0                       # Total Idle time Per DRAM Rank (Tick)
system.mem_ctrls.dram.rank0.pwrStateTime::IDLE   6512463500                       # Time in different power states (Tick)
system.mem_ctrls.dram.rank0.pwrStateTime::REF   1685840000                       # Time in different power states (Tick)
system.mem_ctrls.dram.rank0.pwrStateTime::SREF            0                       # Time in different power states (Tick)
system.mem_ctrls.dram.rank0.pwrStateTime::PRE_PDN            0                       # Time in different power states (Tick)
system.mem_ctrls.dram.rank0.pwrStateTime::ACT  42291478000                       # Time in different power states (Tick)
system.mem_ctrls.dram.rank0.pwrStateTime::ACT_PDN            0                       # Time in different power states (Tick)
system.mem_ctrls.dram.rank1.actEnergy       629291040                       # Energy for activate commands per rank (pJ) (Joule)
system.mem_ctrls.dram.rank1.preEnergy       334449555                       # Energy for precharge commands per rank (pJ) (Joule)
system.mem_ctrls.dram.rank1.readEnergy     2828403900                       # Energy for read commands per rank (pJ) (Joule)
system.mem_ctrls.dram.rank1.writeEnergy    2024952840                       # Energy for write commands per rank (pJ) (Joule)
system.mem_ctrls.dram.rank1.refreshEnergy 3985325760.000000                       # Energy for refresh commands per rank (pJ) (Joule)
system.mem_ctrls.dram.rank1.actBackEnergy  19815818580                       # Energy for active background per rank (pJ) (Joule)
system.mem_ctrls.dram.rank1.preBackEnergy   2701071360                       # Energy for precharge background per rank (pJ) (Joule)
system.mem_ctrls.dram.rank1.actPowerDownEnergy            0                       # Energy for active power-down per rank (pJ) (Joule)
system.mem_ctrls.dram.rank1.prePowerDownEnergy            0                       # Energy for precharge power-down per rank (pJ) (Joule)
system.mem_ctrls.dram.rank1.selfRefreshEnergy            0                       # Energy for self refresh per rank (pJ) (Joule)
system.mem_ctrls.dram.rank1.totalEnergy   32319313035                       # Total energy per rank (pJ) (Joule)
system.mem_ctrls.dram.rank1.averagePower   640.115922                       # Core power per rank (mW) (Watt)
system.mem_ctrls.dram.rank1.totalIdleTime            0                       # Total Idle time Per DRAM Rank (Tick)
system.mem_ctrls.dram.rank1.pwrStateTime::IDLE   6703718000                       # Time in different power states (Tick)
system.mem_ctrls.dram.rank1.pwrStateTime::REF   1685840000                       # Time in different power states (Tick)
system.mem_ctrls.dram.rank1.pwrStateTime::SREF            0                       # Time in different power states (Tick)
system.mem_ctrls.dram.rank1.pwrStateTime::PRE_PDN            0                       # Time in different power states (Tick)
system.mem_ctrls.dram.rank1.pwrStateTime::ACT  42100223500                       # Time in different power states (Tick)
system.mem_ctrls.dram.rank1.pwrStateTime::ACT_PDN            0                       # Time in different power states (Tick)
system.mem_ctrls.power_state.pwrStateResidencyTicks::UNDEFINED  50489781500                       # Cumulative time (in ticks) in various power states (Tick)
system.membus.transDist::ReadResp               16395                       # Transaction distribution (Count)
system.membus.transDist::WritebackDirty        762743                       # Transaction distribution (Count)
system.membus.transDist::WritebackClean            17                       # Transaction distribution (Count)
system.membus.transDist::CleanEvict             14864                       # Transaction distribution (Count)
system.membus.transDist::ReadExReq             762711                       # Transaction distribution (Count)
system.membus.transDist::ReadExResp            762711                       # Transaction distribution (Count)
system.membus.transDist::ReadCleanReq             476                       # Transaction distribution (Count)
system.membus.transDist::ReadSharedReq          15920                       # Transaction distribution (Count)
system.membus.pktCount_system.cpu.icache.mem_side_port::system.mem_ctrls.port          968                       # Packet count per connected requestor and responder (Count)
system.membus.pktCount_system.cpu.icache.mem_side_port::total          968                       # Packet count per connected requestor and responder (Count)
system.membus.pktCount_system.cpu.dcache.mem_side_port::system.mem_ctrls.port      2334869                       # Packet count per connected requestor and responder (Count)
system.membus.pktCount_system.cpu.dcache.mem_side_port::total      2334869                       # Packet count per connected requestor and responder (Count)
system.membus.pktCount::total                 2335837                       # Packet count per connected requestor and responder (Count)
system.membus.pktSize_system.cpu.icache.mem_side_port::system.mem_ctrls.port        31488                       # Cumulative packet size per connected requestor and responder (Byte)
system.membus.pktSize_system.cpu.icache.mem_side_port::total        31488                       # Cumulative packet size per connected requestor and responder (Byte)
system.membus.pktSize_system.cpu.dcache.mem_side_port::system.mem_ctrls.port     98647936                       # Cumulative packet size per connected requestor and responder (Byte)
system.membus.pktSize_system.cpu.dcache.mem_side_port::total     98647936                       # Cumulative packet size per connected requestor and responder (Byte)
system.membus.pktSize::total                 98679424                       # Cumulative packet size per connected requestor and responder (Byte)
system.membus.snoops                                0                       # Total snoops (Count)
system.membus.snoopTraffic                          0                       # Total snoop traffic (Byte)
system.membus.snoopFanout::samples             779107                       # Request fanout histogram (Count)
system.membus.snoopFanout::mean                     0                       # Request fanout histogram (Count)
system.membus.snoopFanout::stdev                    0                       # Request fanout histogram (Count)
system.membus.snoopFanout::underflows               0      0.00%      0.00% # Request fanout histogram (Count)
system.membus.snoopFanout::0                   779107    100.00%    100.00% # Request fanout histogram (Count)
system.membus.snoopFanout::1                        0      0.00%    100.00% # Request fanout histogram (Count)
system.membus.snoopFanout::2                        0      0.00%    100.00% # Request fanout histogram (Count)
system.membus.snoopFanout::3                        0      0.00%    100.00% # Request fanout histogram (Count)
system.membus.snoopFanout::4                        0      0.00%    100.00% # Request fanout histogram (Count)
system.membus.snoopFanout::overflows                0      0.00%    100.00% # Request fanout histogram (Count)
system.membus.snoopFanout::min_value                0                       # Request fanout histogram (Count)
system.membus.snoopFanout::max_value                0                       # Request fanout histogram (Count)
system.membus.snoopFanout::total               779107                       # Request fanout histogram (Count)
system.membus.power_state.pwrStateResidencyTicks::UNDEFINED  50489781500                       # Cumulative time (in ticks) in various power states (Tick)
system.membus.reqLayer2.occupancy          5020411250                       # Layer occupancy (ticks) (Tick)
system.membus.reqLayer2.utilization               0.1                       # Layer utilization (Ratio)
system.membus.respLayer1.occupancy            2525000                       # Layer occupancy (ticks) (Tick)
system.membus.respLayer1.utilization              0.0                       # Layer utilization (Ratio)
system.membus.respLayer2.occupancy         4105890750                       # Layer occupancy (ticks) (Tick)
system.membus.respLayer2.utilization              0.1                       # Layer utilization (Ratio)
system.membus.snoop_filter.totRequests        1556731                       # Total number of requests made to the snoop filter. (Count)
system.membus.snoop_filter.hitSingleRequests       777624                       # Number of requests hitting in the snoop filter with a single holder of the requested data. (Count)
system.membus.snoop_filter.hitMultiRequests            0                       # Number of requests hitting in the snoop filter with multiple (>1) holders of the requested data. (Count)
system.membus.snoop_filter.totSnoops                0                       # Total number of snoops made to the snoop filter. (Count)
system.membus.snoop_filter.hitSingleSnoops            0                       # Number of snoops hitting in the snoop filter with a single holder of the requested data. (Count)
system.membus.snoop_filter.hitMultiSnoops            0                       # Number of snoops hitting in the snoop filter with multiple (>1) holders of the requested data. (Count)
system.voltage_domain.voltage                       1                       # Voltage in Volts (Volt)
system.workload.inst.arm                            0                       # number of arm instructions executed (Count)
system.workload.inst.quiesce                        0                       # number of quiesce instructions executed (Count)

---------- End Simulation Statistics   ----------
