
---------- Begin Simulation Statistics ----------
simSeconds                                   0.039036                       # Number of seconds simulated (Second)
simTicks                                  39036295000                       # Number of ticks simulated (Tick)
finalTick                                 39036295000                       # Number of ticks from beginning of simulation (restored from checkpoints and never reset) (Tick)
simFreq                                  1000000000000                       # The number of ticks per simulated second ((Tick/Second))
hostSeconds                                    185.41                       # Real time elapsed on the host (Second)
hostTickRate                                210540334                       # The number of ticks simulated per host second (ticks/s) ((Tick/Second))
hostMemory                                     660172                       # Number of bytes of host memory used (Byte)
simInsts                                     35000110                       # Number of instructions simulated (Count)
simOps                                       59206969                       # Number of ops (including micro ops) simulated (Count)
hostInstRate                                   188771                       # Simulator instruction rate (inst/s) ((Count/Second))
hostOpRate                                     319330                       # Simulator op (including micro ops) rate (op/s) ((Count/Second))
system.clk_domain.clock                          1000                       # Clock period in ticks (Tick)
system.cpu.numCycles                        156145181                       # Number of cpu cycles simulated (Cycle)
system.cpu.numWorkItemsStarted                      0                       # Number of work items this cpu started (Count)
system.cpu.numWorkItemsCompleted                    0                       # Number of work items this cpu completed (Count)
system.cpu.instsAdded                        59251990                       # Number of instructions added to the IQ (excludes non-spec) (Count)
system.cpu.nonSpecInstsAdded                       49                       # Number of non-speculative instructions added to the IQ (Count)
system.cpu.instsIssued                       59246292                       # Number of instructions issued (Count)
system.cpu.squashedInstsIssued                    105                       # Number of squashed instructions issued (Count)
system.cpu.squashedInstsExamined                45064                       # Number of squashed instructions iterated over during squash; mainly for profiling (Count)
system.cpu.squashedOperandsExamined             40057                       # Number of squashed operands that are examined and possibly removed from graph (Count)
system.cpu.squashedNonSpecRemoved                  37                       # Number of squashed non-spec instructions that were removed (Count)
system.cpu.numIssuedDist::samples           156080798                       # Number of insts issued each cycle (Count)
system.cpu.numIssuedDist::mean               0.379587                       # Number of insts issued each cycle (Count)
system.cpu.numIssuedDist::stdev              0.987222                       # Number of insts issued each cycle (Count)
system.cpu.numIssuedDist::underflows                0      0.00%      0.00% # Number of insts issued each cycle (Count)
system.cpu.numIssuedDist::0                 126825264     81.26%     81.26% # Number of insts issued each cycle (Count)
system.cpu.numIssuedDist::1                  14946287      9.58%     90.83% # Number of insts issued each cycle (Count)
system.cpu.numIssuedDist::2                   6465818      4.14%     94.97% # Number of insts issued each cycle (Count)
system.cpu.numIssuedDist::3                   3071329      1.97%     96.94% # Number of insts issued each cycle (Count)
system.cpu.numIssuedDist::4                   2803698      1.80%     98.74% # Number of insts issued each cycle (Count)
system.cpu.numIssuedDist::5                    876689      0.56%     99.30% # Number of insts issued each cycle (Count)
system.cpu.numIssuedDist::6                   1086256      0.70%    100.00% # Number of insts issued each cycle (Count)
system.cpu.numIssuedDist::7                      5047      0.00%    100.00% # Number of insts issued each cycle (Count)
system.cpu.numIssuedDist::8                       410      0.00%    100.00% # Number of insts issued each cycle (Count)
system.cpu.numIssuedDist::overflows                 0      0.00%    100.00% # Number of insts issued each cycle (Count)
system.cpu.numIssuedDist::min_value                 0                       # Number of insts issued each cycle (Count)
system.cpu.numIssuedDist::max_value                 8                       # Number of insts issued each cycle (Count)
system.cpu.numIssuedDist::total             156080798                       # Number of insts issued each cycle (Count)
system.cpu.statFuBusy::No_OpClass                   0      0.00%      0.00% # attempts to use FU when none available (Count)
system.cpu.statFuBusy::IntAlu                     278      0.01%      0.01% # attempts to use FU when none available (Count)
system.cpu.statFuBusy::IntMult                      0      0.00%      0.01% # attempts to use FU when none available (Count)
system.cpu.statFuBusy::IntDiv                       0      0.00%      0.01% # attempts to use FU when none available (Count)
system.cpu.statFuBusy::FloatAdd                     0      0.00%      0.01% # attempts to use FU when none available (Count)
system.cpu.statFuBusy::FloatCmp                     0      0.00%      0.01% # attempts to use FU when none available (Count)
system.cpu.statFuBusy::FloatCvt                     0      0.00%      0.01% # attempts to use FU when none available (Count)
system.cpu.statFuBusy::FloatMult                    0      0.00%      0.01% # attempts to use FU when none available (Count)
system.cpu.statFuBusy::FloatMultAcc                 0      0.00%      0.01% # attempts to use FU when none available (Count)
system.cpu.statFuBusy::FloatDiv                     0      0.00%      0.01% # attempts to use FU when none available (Count)
system.cpu.statFuBusy::FloatMisc                    0      0.00%      0.01% # attempts to use FU when none available (Count)
system.cpu.statFuBusy::FloatSqrt                    0      0.00%      0.01% # attempts to use FU when none available (Count)
system.cpu.statFuBusy::SimdAdd                      0      0.00%      0.01% # attempts to use FU when none available (Count)
system.cpu.statFuBusy::SimdAddAcc                   0      0.00%      0.01% # attempts to use FU when none available (Count)
system.cpu.statFuBusy::SimdAlu                     10      0.00%      0.02% # attempts to use FU when none available (Count)
system.cpu.statFuBusy::SimdCmp                      0      0.00%      0.02% # attempts to use FU when none available (Count)
system.cpu.statFuBusy::SimdCvt                      1      0.00%      0.02% # attempts to use FU when none available (Count)
system.cpu.statFuBusy::SimdMisc                     2      0.00%      0.02% # attempts to use FU when none available (Count)
system.cpu.statFuBusy::SimdMult                     0      0.00%      0.02% # attempts to use FU when none available (Count)
system.cpu.statFuBusy::SimdMultAcc                  0      0.00%      0.02% # attempts to use FU when none available (Count)
system.cpu.statFuBusy::SimdShift                    0      0.00%      0.02% # attempts to use FU when none available (Count)
system.cpu.statFuBusy::SimdShiftAcc                 0      0.00%      0.02% # attempts to use FU when none available (Count)
system.cpu.statFuBusy::SimdDiv                      0      0.00%      0.02% # attempts to use FU when none available (Count)
system.cpu.statFuBusy::SimdSqrt                     0      0.00%      0.02% # attempts to use FU when none available (Count)
system.cpu.statFuBusy::SimdFloatAdd                 0      0.00%      0.02% # attempts to use FU when none available (Count)
system.cpu.statFuBusy::SimdFloatAlu                 0      0.00%      0.02% # attempts to use FU when none available (Count)
system.cpu.statFuBusy::SimdFloatCmp                 0      0.00%      0.02% # attempts to use FU when none available (Count)
system.cpu.statFuBusy::SimdFloatCvt                 0      0.00%      0.02% # attempts to use FU when none available (Count)
system.cpu.statFuBusy::SimdFloatDiv                 0      0.00%      0.02% # attempts to use FU when none available (Count)
system.cpu.statFuBusy::SimdFloatMisc                0      0.00%      0.02% # attempts to use FU when none available (Count)
system.cpu.statFuBusy::SimdFloatMult                0      0.00%      0.02% # attempts to use FU when none available (Count)
system.cpu.statFuBusy::SimdFloatMultAcc             0      0.00%      0.02% # attempts to use FU when none available (Count)
system.cpu.statFuBusy::SimdFloatSqrt                0      0.00%      0.02% # attempts to use FU when none available (Count)
system.cpu.statFuBusy::SimdReduceAdd                0      0.00%      0.02% # attempts to use FU when none available (Count)
system.cpu.statFuBusy::SimdReduceAlu                0      0.00%      0.02% # attempts to use FU when none available (Count)
system.cpu.statFuBusy::SimdReduceCmp                0      0.00%      0.02% # attempts to use FU when none available (Count)
system.cpu.statFuBusy::SimdFloatReduceAdd            0      0.00%      0.02% # attempts to use FU when none available (Count)
system.cpu.statFuBusy::SimdFloatReduceCmp            0      0.00%      0.02% # attempts to use FU when none available (Count)
system.cpu.statFuBusy::SimdAes                      0      0.00%      0.02% # attempts to use FU when none available (Count)
system.cpu.statFuBusy::SimdAesMix                   0      0.00%      0.02% # attempts to use FU when none available (Count)
system.cpu.statFuBusy::SimdSha1Hash                 0      0.00%      0.02% # attempts to use FU when none available (Count)
system.cpu.statFuBusy::SimdSha1Hash2                0      0.00%      0.02% # attempts to use FU when none available (Count)
system.cpu.statFuBusy::SimdSha256Hash               0      0.00%      0.02% # attempts to use FU when none available (Count)
system.cpu.statFuBusy::SimdSha256Hash2              0      0.00%      0.02% # attempts to use FU when none available (Count)
system.cpu.statFuBusy::SimdShaSigma2                0      0.00%      0.02% # attempts to use FU when none available (Count)
system.cpu.statFuBusy::SimdShaSigma3                0      0.00%      0.02% # attempts to use FU when none available (Count)
system.cpu.statFuBusy::SimdPredAlu                  0      0.00%      0.02% # attempts to use FU when none available (Count)
system.cpu.statFuBusy::MemRead                1909533     99.98%    100.00% # attempts to use FU when none available (Count)
system.cpu.statFuBusy::MemWrite                    16      0.00%    100.00% # attempts to use FU when none available (Count)
system.cpu.statFuBusy::FloatMemRead                 2      0.00%    100.00% # attempts to use FU when none available (Count)
system.cpu.statFuBusy::FloatMemWrite               10      0.00%    100.00% # attempts to use FU when none available (Count)
system.cpu.statFuBusy::IprAccess                    0      0.00%    100.00% # attempts to use FU when none available (Count)
system.cpu.statFuBusy::InstPrefetch                 0      0.00%    100.00% # attempts to use FU when none available (Count)
system.cpu.statIssuedInstType_0::No_OpClass          777      0.00%      0.00% # Number of instructions issued per FU type, per thread (Count)
system.cpu.statIssuedInstType_0::IntAlu      32634125     55.08%     55.08% # Number of instructions issued per FU type, per thread (Count)
system.cpu.statIssuedInstType_0::IntMult         1168      0.00%     55.09% # Number of instructions issued per FU type, per thread (Count)
system.cpu.statIssuedInstType_0::IntDiv            21      0.00%     55.09% # Number of instructions issued per FU type, per thread (Count)
system.cpu.statIssuedInstType_0::FloatAdd          136      0.00%     55.09% # Number of instructions issued per FU type, per thread (Count)
system.cpu.statIssuedInstType_0::FloatCmp            0      0.00%     55.09% # Number of instructions issued per FU type, per thread (Count)
system.cpu.statIssuedInstType_0::FloatCvt            0      0.00%     55.09% # Number of instructions issued per FU type, per thread (Count)
system.cpu.statIssuedInstType_0::FloatMult            0      0.00%     55.09% # Number of instructions issued per FU type, per thread (Count)
system.cpu.statIssuedInstType_0::FloatMultAcc            0      0.00%     55.09% # Number of instructions issued per FU type, per thread (Count)
system.cpu.statIssuedInstType_0::FloatDiv            0      0.00%     55.09% # Number of instructions issued per FU type, per thread (Count)
system.cpu.statIssuedInstType_0::FloatMisc            0      0.00%     55.09% # Number of instructions issued per FU type, per thread (Count)
system.cpu.statIssuedInstType_0::FloatSqrt            0      0.00%     55.09% # Number of instructions issued per FU type, per thread (Count)
system.cpu.statIssuedInstType_0::SimdAdd            0      0.00%     55.09% # Number of instructions issued per FU type, per thread (Count)
system.cpu.statIssuedInstType_0::SimdAddAcc            0      0.00%     55.09% # Number of instructions issued per FU type, per thread (Count)
system.cpu.statIssuedInstType_0::SimdAlu          146      0.00%     55.09% # Number of instructions issued per FU type, per thread (Count)
system.cpu.statIssuedInstType_0::SimdCmp            0      0.00%     55.09% # Number of instructions issued per FU type, per thread (Count)
system.cpu.statIssuedInstType_0::SimdCvt           46      0.00%     55.09% # Number of instructions issued per FU type, per thread (Count)
system.cpu.statIssuedInstType_0::SimdMisc          216      0.00%     55.09% # Number of instructions issued per FU type, per thread (Count)
system.cpu.statIssuedInstType_0::SimdMult            0      0.00%     55.09% # Number of instructions issued per FU type, per thread (Count)
system.cpu.statIssuedInstType_0::SimdMultAcc            0      0.00%     55.09% # Number of instructions issued per FU type, per thread (Count)
system.cpu.statIssuedInstType_0::SimdShift            0      0.00%     55.09% # Number of instructions issued per FU type, per thread (Count)
system.cpu.statIssuedInstType_0::SimdShiftAcc            0      0.00%     55.09% # Number of instructions issued per FU type, per thread (Count)
system.cpu.statIssuedInstType_0::SimdDiv            0      0.00%     55.09% # Number of instructions issued per FU type, per thread (Count)
system.cpu.statIssuedInstType_0::SimdSqrt            0      0.00%     55.09% # Number of instructions issued per FU type, per thread (Count)
system.cpu.statIssuedInstType_0::SimdFloatAdd            0      0.00%     55.09% # Number of instructions issued per FU type, per thread (Count)
system.cpu.statIssuedInstType_0::SimdFloatAlu            0      0.00%     55.09% # Number of instructions issued per FU type, per thread (Count)
system.cpu.statIssuedInstType_0::SimdFloatCmp            0      0.00%     55.09% # Number of instructions issued per FU type, per thread (Count)
system.cpu.statIssuedInstType_0::SimdFloatCvt            0      0.00%     55.09% # Number of instructions issued per FU type, per thread (Count)
system.cpu.statIssuedInstType_0::SimdFloatDiv            0      0.00%     55.09% # Number of instructions issued per FU type, per thread (Count)
system.cpu.statIssuedInstType_0::SimdFloatMisc            0      0.00%     55.09% # Number of instructions issued per FU type, per thread (Count)
system.cpu.statIssuedInstType_0::SimdFloatMult            0      0.00%     55.09% # Number of instructions issued per FU type, per thread (Count)
system.cpu.statIssuedInstType_0::SimdFloatMultAcc            0      0.00%     55.09% # Number of instructions issued per FU type, per thread (Count)
system.cpu.statIssuedInstType_0::SimdFloatSqrt            0      0.00%     55.09% # Number of instructions issued per FU type, per thread (Count)
system.cpu.statIssuedInstType_0::SimdReduceAdd            0      0.00%     55.09% # Number of instructions issued per FU type, per thread (Count)
system.cpu.statIssuedInstType_0::SimdReduceAlu            0      0.00%     55.09% # Number of instructions issued per FU type, per thread (Count)
system.cpu.statIssuedInstType_0::SimdReduceCmp            0      0.00%     55.09% # Number of instructions issued per FU type, per thread (Count)
system.cpu.statIssuedInstType_0::SimdFloatReduceAdd            0      0.00%     55.09% # Number of instructions issued per FU type, per thread (Count)
system.cpu.statIssuedInstType_0::SimdFloatReduceCmp            0      0.00%     55.09% # Number of instructions issued per FU type, per thread (Count)
system.cpu.statIssuedInstType_0::SimdAes            0      0.00%     55.09% # Number of instructions issued per FU type, per thread (Count)
system.cpu.statIssuedInstType_0::SimdAesMix            0      0.00%     55.09% # Number of instructions issued per FU type, per thread (Count)
system.cpu.statIssuedInstType_0::SimdSha1Hash            0      0.00%     55.09% # Number of instructions issued per FU type, per thread (Count)
system.cpu.statIssuedInstType_0::SimdSha1Hash2            0      0.00%     55.09% # Number of instructions issued per FU type, per thread (Count)
system.cpu.statIssuedInstType_0::SimdSha256Hash            0      0.00%     55.09% # Number of instructions issued per FU type, per thread (Count)
system.cpu.statIssuedInstType_0::SimdSha256Hash2            0      0.00%     55.09% # Number of instructions issued per FU type, per thread (Count)
system.cpu.statIssuedInstType_0::SimdShaSigma2            0      0.00%     55.09% # Number of instructions issued per FU type, per thread (Count)
system.cpu.statIssuedInstType_0::SimdShaSigma3            0      0.00%     55.09% # Number of instructions issued per FU type, per thread (Count)
system.cpu.statIssuedInstType_0::SimdPredAlu            0      0.00%     55.09% # Number of instructions issued per FU type, per thread (Count)
system.cpu.statIssuedInstType_0::MemRead     20207117     34.11%     89.19% # Number of instructions issued per FU type, per thread (Count)
system.cpu.statIssuedInstType_0::MemWrite      6401965     10.81%    100.00% # Number of instructions issued per FU type, per thread (Count)
system.cpu.statIssuedInstType_0::FloatMemRead           62      0.00%    100.00% # Number of instructions issued per FU type, per thread (Count)
system.cpu.statIssuedInstType_0::FloatMemWrite          513      0.00%    100.00% # Number of instructions issued per FU type, per thread (Count)
system.cpu.statIssuedInstType_0::IprAccess            0      0.00%    100.00% # Number of instructions issued per FU type, per thread (Count)
system.cpu.statIssuedInstType_0::InstPrefetch            0      0.00%    100.00% # Number of instructions issued per FU type, per thread (Count)
system.cpu.statIssuedInstType_0::total       59246292                       # Number of instructions issued per FU type, per thread (Count)
system.cpu.issueRate                         0.379431                       # Inst issue rate ((Count/Cycle))
system.cpu.fuBusy                             1909852                       # FU busy when requested (Count)
system.cpu.fuBusyRate                        0.032236                       # FU busy rate (busy events/executed inst) ((Count/Count))
system.cpu.intInstQueueReads                276480793                       # Number of integer instruction queue reads (Count)
system.cpu.intInstQueueWrites                59295850                       # Number of integer instruction queue writes (Count)
system.cpu.intInstQueueWakeupAccesses        59241020                       # Number of integer instruction queue wakeup accesses (Count)
system.cpu.fpInstQueueReads                      2546                       # Number of floating instruction queue reads (Count)
system.cpu.fpInstQueueWrites                     1403                       # Number of floating instruction queue writes (Count)
system.cpu.fpInstQueueWakeupAccesses             1238                       # Number of floating instruction queue wakeup accesses (Count)
system.cpu.vecInstQueueReads                        0                       # Number of vector instruction queue reads (Count)
system.cpu.vecInstQueueWrites                       0                       # Number of vector instruction queue writes (Count)
system.cpu.vecInstQueueWakeupAccesses               0                       # Number of vector instruction queue wakeup accesses (Count)
system.cpu.intAluAccesses                    61154083                       # Number of integer alu accesses (Count)
system.cpu.fpAluAccesses                         1284                       # Number of floating point alu accesses (Count)
system.cpu.vecAluAccesses                           0                       # Number of vector alu accesses (Count)
system.cpu.numInsts                          59244894                       # Number of executed instructions (Count)
system.cpu.numLoadInsts                      20206790                       # Number of load instructions executed (Count)
system.cpu.numSquashedInsts                      1398                       # Number of squashed instructions skipped in execute (Count)
system.cpu.numSwp                                   0                       # Number of swp insts executed (Count)
system.cpu.numNop                                   0                       # Number of nop insts executed (Count)
system.cpu.numRefs                           26609140                       # Number of memory reference insts executed (Count)
system.cpu.numBranches                        3204233                       # Number of branches executed (Count)
system.cpu.numStoreInsts                      6402350                       # Number of stores executed (Count)
system.cpu.numRate                           0.379422                       # Inst execution rate ((Count/Cycle))
system.cpu.timesIdled                             367                       # Number of times that the entire CPU went into an idle state and unscheduled itself (Count)
system.cpu.idleCycles                           64383                       # Total number of cycles that the CPU has spent unscheduled due to idling (Cycle)
system.cpu.committedInsts                    35000110                       # Number of Instructions Simulated (Count)
system.cpu.committedOps                      59206969                       # Number of Ops (including micro ops) Simulated (Count)
system.cpu.cpi                               4.461277                       # CPI: Cycles Per Instruction ((Cycle/Count))
system.cpu.totalCpi                          4.461277                       # CPI: Total CPI of All Threads ((Cycle/Count))
system.cpu.ipc                               0.224151                       # IPC: Instructions Per Cycle ((Count/Cycle))
system.cpu.totalIpc                          0.224151                       # IPC: Total IPC of All Threads ((Count/Cycle))
system.cpu.intRegfileReads                   78051871                       # Number of integer regfile reads (Count)
system.cpu.intRegfileWrites                  45432973                       # Number of integer regfile writes (Count)
system.cpu.fpRegfileReads                        1483                       # Number of floating regfile reads (Count)
system.cpu.fpRegfileWrites                        692                       # Number of floating regfile writes (Count)
system.cpu.ccRegfileReads                    27020118                       # number of cc regfile reads (Count)
system.cpu.ccRegfileWrites                   23214659                       # number of cc regfile writes (Count)
system.cpu.miscRegfileReads                  33018990                       # number of misc regfile reads (Count)
system.cpu.MemDepUnit__0.insertedLoads       20207912                       # Number of loads inserted to the mem dependence unit. (Count)
system.cpu.MemDepUnit__0.insertedStores       6403149                       # Number of stores inserted to the mem dependence unit. (Count)
system.cpu.MemDepUnit__0.conflictingLoads     13209573                       # Number of conflicting loads. (Count)
system.cpu.MemDepUnit__0.conflictingStores      2005332                       # Number of conflicting stores. (Count)
system.cpu.MemDepUnit__1.insertedLoads              0                       # Number of loads inserted to the mem dependence unit. (Count)
system.cpu.MemDepUnit__1.insertedStores             0                       # Number of stores inserted to the mem dependence unit. (Count)
system.cpu.MemDepUnit__1.conflictingLoads            0                       # Number of conflicting loads. (Count)
system.cpu.MemDepUnit__1.conflictingStores            0                       # Number of conflicting stores. (Count)
system.cpu.MemDepUnit__2.insertedLoads              0                       # Number of loads inserted to the mem dependence unit. (Count)
system.cpu.MemDepUnit__2.insertedStores             0                       # Number of stores inserted to the mem dependence unit. (Count)
system.cpu.MemDepUnit__2.conflictingLoads            0                       # Number of conflicting loads. (Count)
system.cpu.MemDepUnit__2.conflictingStores            0                       # Number of conflicting stores. (Count)
system.cpu.MemDepUnit__3.insertedLoads              0                       # Number of loads inserted to the mem dependence unit. (Count)
system.cpu.MemDepUnit__3.insertedStores             0                       # Number of stores inserted to the mem dependence unit. (Count)
system.cpu.MemDepUnit__3.conflictingLoads            0                       # Number of conflicting loads. (Count)
system.cpu.MemDepUnit__3.conflictingStores            0                       # Number of conflicting stores. (Count)
system.cpu.branchPred.lookups                 3208836                       # Number of BP lookups (Count)
system.cpu.branchPred.condPredicted           3207306                       # Number of conditional branches predicted (Count)
system.cpu.branchPred.condIncorrect              1054                       # Number of conditional branches incorrect (Count)
system.cpu.branchPred.BTBLookups              3206357                       # Number of BTB lookups (Count)
system.cpu.branchPred.BTBUpdates                  594                       # Number of BTB updates (Count)
system.cpu.branchPred.BTBHits                 3205613                       # Number of BTB hits (Count)
system.cpu.branchPred.BTBHitRatio            0.999768                       # BTB Hit Ratio (Ratio)
system.cpu.branchPred.RASUsed                     283                       # Number of times the RAS was used to get a target. (Count)
system.cpu.branchPred.RASIncorrect                  0                       # Number of incorrect RAS predictions. (Count)
system.cpu.branchPred.indirectLookups             365                       # Number of indirect predictor lookups. (Count)
system.cpu.branchPred.indirectHits                 12                       # Number of indirect target hits. (Count)
system.cpu.branchPred.indirectMisses              353                       # Number of indirect misses. (Count)
system.cpu.branchPred.indirectMispredicted          104                       # Number of mispredicted indirect branches. (Count)
system.cpu.commit.commitSquashedInsts           45467                       # The number of squashed insts skipped by commit (Count)
system.cpu.commit.commitNonSpecStalls              12                       # The number of times commit has been forced to stall to communicate backwards (Count)
system.cpu.commit.branchMispredicts              1040                       # The number of times a branch was mispredicted (Count)
system.cpu.commit.numCommittedDist::samples    156074163                       # Number of insts commited each cycle (Count)
system.cpu.commit.numCommittedDist::mean     0.379352                       # Number of insts commited each cycle (Count)
system.cpu.commit.numCommittedDist::stdev     1.085928                       # Number of insts commited each cycle (Count)
system.cpu.commit.numCommittedDist::underflows            0      0.00%      0.00% # Number of insts commited each cycle (Count)
system.cpu.commit.numCommittedDist::0       129640737     83.06%     83.06% # Number of insts commited each cycle (Count)
system.cpu.commit.numCommittedDist::1        13627682      8.73%     91.80% # Number of insts commited each cycle (Count)
system.cpu.commit.numCommittedDist::2         4670466      2.99%     94.79% # Number of insts commited each cycle (Count)
system.cpu.commit.numCommittedDist::3         3214215      2.06%     96.85% # Number of insts commited each cycle (Count)
system.cpu.commit.numCommittedDist::4          169193      0.11%     96.96% # Number of insts commited each cycle (Count)
system.cpu.commit.numCommittedDist::5         2596520      1.66%     98.62% # Number of insts commited each cycle (Count)
system.cpu.commit.numCommittedDist::6         2152960      1.38%    100.00% # Number of insts commited each cycle (Count)
system.cpu.commit.numCommittedDist::7             542      0.00%    100.00% # Number of insts commited each cycle (Count)
system.cpu.commit.numCommittedDist::8            1848      0.00%    100.00% # Number of insts commited each cycle (Count)
system.cpu.commit.numCommittedDist::overflows            0      0.00%    100.00% # Number of insts commited each cycle (Count)
system.cpu.commit.numCommittedDist::min_value            0                       # Number of insts commited each cycle (Count)
system.cpu.commit.numCommittedDist::max_value            8                       # Number of insts commited each cycle (Count)
system.cpu.commit.numCommittedDist::total    156074163                       # Number of insts commited each cycle (Count)
system.cpu.commit.instsCommitted             35000110                       # Number of instructions committed (Count)
system.cpu.commit.opsCommitted               59206969                       # Number of ops (including micro ops) committed (Count)
system.cpu.commit.memRefs                    26593598                       # Number of memory references committed (Count)
system.cpu.commit.loads                      20195076                       # Number of loads committed (Count)
system.cpu.commit.amos                              0                       # Number of atomic instructions committed (Count)
system.cpu.commit.membars                           8                       # Number of memory barriers committed (Count)
system.cpu.commit.branches                    3201912                       # Number of branches committed (Count)
system.cpu.commit.vectorInstructions                0                       # Number of committed Vector instructions. (Count)
system.cpu.commit.floating                       1125                       # Number of committed floating point instructions. (Count)
system.cpu.commit.integer                    59206217                       # Number of committed integer instructions. (Count)
system.cpu.commit.functionCalls                   151                       # Number of function calls committed. (Count)
system.cpu.commit.committedInstType_0::No_OpClass          189      0.00%      0.00% # Class of committed instruction (Count)
system.cpu.commit.committedInstType_0::IntAlu     32611666     55.08%     55.08% # Class of committed instruction (Count)
system.cpu.commit.committedInstType_0::IntMult         1005      0.00%     55.08% # Class of committed instruction (Count)
system.cpu.commit.committedInstType_0::IntDiv           21      0.00%     55.08% # Class of committed instruction (Count)
system.cpu.commit.committedInstType_0::FloatAdd          135      0.00%     55.08% # Class of committed instruction (Count)
system.cpu.commit.committedInstType_0::FloatCmp            0      0.00%     55.08% # Class of committed instruction (Count)
system.cpu.commit.committedInstType_0::FloatCvt            0      0.00%     55.08% # Class of committed instruction (Count)
system.cpu.commit.committedInstType_0::FloatMult            0      0.00%     55.08% # Class of committed instruction (Count)
system.cpu.commit.committedInstType_0::FloatMultAcc            0      0.00%     55.08% # Class of committed instruction (Count)
system.cpu.commit.committedInstType_0::FloatDiv            0      0.00%     55.08% # Class of committed instruction (Count)
system.cpu.commit.committedInstType_0::FloatMisc            0      0.00%     55.08% # Class of committed instruction (Count)
system.cpu.commit.committedInstType_0::FloatSqrt            0      0.00%     55.08% # Class of committed instruction (Count)
system.cpu.commit.committedInstType_0::SimdAdd            0      0.00%     55.08% # Class of committed instruction (Count)
system.cpu.commit.committedInstType_0::SimdAddAcc            0      0.00%     55.08% # Class of committed instruction (Count)
system.cpu.commit.committedInstType_0::SimdAlu           94      0.00%     55.08% # Class of committed instruction (Count)
system.cpu.commit.committedInstType_0::SimdCmp            0      0.00%     55.08% # Class of committed instruction (Count)
system.cpu.commit.committedInstType_0::SimdCvt           46      0.00%     55.08% # Class of committed instruction (Count)
system.cpu.commit.committedInstType_0::SimdMisc          215      0.00%     55.08% # Class of committed instruction (Count)
system.cpu.commit.committedInstType_0::SimdMult            0      0.00%     55.08% # Class of committed instruction (Count)
system.cpu.commit.committedInstType_0::SimdMultAcc            0      0.00%     55.08% # Class of committed instruction (Count)
system.cpu.commit.committedInstType_0::SimdShift            0      0.00%     55.08% # Class of committed instruction (Count)
system.cpu.commit.committedInstType_0::SimdShiftAcc            0      0.00%     55.08% # Class of committed instruction (Count)
system.cpu.commit.committedInstType_0::SimdDiv            0      0.00%     55.08% # Class of committed instruction (Count)
system.cpu.commit.committedInstType_0::SimdSqrt            0      0.00%     55.08% # Class of committed instruction (Count)
system.cpu.commit.committedInstType_0::SimdFloatAdd            0      0.00%     55.08% # Class of committed instruction (Count)
system.cpu.commit.committedInstType_0::SimdFloatAlu            0      0.00%     55.08% # Class of committed instruction (Count)
system.cpu.commit.committedInstType_0::SimdFloatCmp            0      0.00%     55.08% # Class of committed instruction (Count)
system.cpu.commit.committedInstType_0::SimdFloatCvt            0      0.00%     55.08% # Class of committed instruction (Count)
system.cpu.commit.committedInstType_0::SimdFloatDiv            0      0.00%     55.08% # Class of committed instruction (Count)
system.cpu.commit.committedInstType_0::SimdFloatMisc            0      0.00%     55.08% # Class of committed instruction (Count)
system.cpu.commit.committedInstType_0::SimdFloatMult            0      0.00%     55.08% # Class of committed instruction (Count)
system.cpu.commit.committedInstType_0::SimdFloatMultAcc            0      0.00%     55.08% # Class of committed instruction (Count)
system.cpu.commit.committedInstType_0::SimdFloatSqrt            0      0.00%     55.08% # Class of committed instruction (Count)
system.cpu.commit.committedInstType_0::SimdReduceAdd            0      0.00%     55.08% # Class of committed instruction (Count)
system.cpu.commit.committedInstType_0::SimdReduceAlu            0      0.00%     55.08% # Class of committed instruction (Count)
system.cpu.commit.committedInstType_0::SimdReduceCmp            0      0.00%     55.08% # Class of committed instruction (Count)
system.cpu.commit.committedInstType_0::SimdFloatReduceAdd            0      0.00%     55.08% # Class of committed instruction (Count)
system.cpu.commit.committedInstType_0::SimdFloatReduceCmp            0      0.00%     55.08% # Class of committed instruction (Count)
system.cpu.commit.committedInstType_0::SimdAes            0      0.00%     55.08% # Class of committed instruction (Count)
system.cpu.commit.committedInstType_0::SimdAesMix            0      0.00%     55.08% # Class of committed instruction (Count)
system.cpu.commit.committedInstType_0::SimdSha1Hash            0      0.00%     55.08% # Class of committed instruction (Count)
system.cpu.commit.committedInstType_0::SimdSha1Hash2            0      0.00%     55.08% # Class of committed instruction (Count)
system.cpu.commit.committedInstType_0::SimdSha256Hash            0      0.00%     55.08% # Class of committed instruction (Count)
system.cpu.commit.committedInstType_0::SimdSha256Hash2            0      0.00%     55.08% # Class of committed instruction (Count)
system.cpu.commit.committedInstType_0::SimdShaSigma2            0      0.00%     55.08% # Class of committed instruction (Count)
system.cpu.commit.committedInstType_0::SimdShaSigma3            0      0.00%     55.08% # Class of committed instruction (Count)
system.cpu.commit.committedInstType_0::SimdPredAlu            0      0.00%     55.08% # Class of committed instruction (Count)
system.cpu.commit.committedInstType_0::MemRead     20195034     34.11%     89.19% # Class of committed instruction (Count)
system.cpu.commit.committedInstType_0::MemWrite      6398068     10.81%    100.00% # Class of committed instruction (Count)
system.cpu.commit.committedInstType_0::FloatMemRead           42      0.00%    100.00% # Class of committed instruction (Count)
system.cpu.commit.committedInstType_0::FloatMemWrite          454      0.00%    100.00% # Class of committed instruction (Count)
system.cpu.commit.committedInstType_0::IprAccess            0      0.00%    100.00% # Class of committed instruction (Count)
system.cpu.commit.committedInstType_0::InstPrefetch            0      0.00%    100.00% # Class of committed instruction (Count)
system.cpu.commit.committedInstType_0::total     59206969                       # Class of committed instruction (Count)
system.cpu.commit.commitEligibleSamples          1848                       # number cycles where commit BW limit reached (Cycle)
system.cpu.dcache.demandHits::cpu.data       17527838                       # number of demand (read+write) hits (Count)
system.cpu.dcache.demandHits::total          17527838                       # number of demand (read+write) hits (Count)
system.cpu.dcache.overallHits::cpu.data      17527838                       # number of overall hits (Count)
system.cpu.dcache.overallHits::total         17527838                       # number of overall hits (Count)
system.cpu.dcache.demandMisses::cpu.data       473190                       # number of demand (read+write) misses (Count)
system.cpu.dcache.demandMisses::total          473190                       # number of demand (read+write) misses (Count)
system.cpu.dcache.overallMisses::cpu.data       473190                       # number of overall misses (Count)
system.cpu.dcache.overallMisses::total         473190                       # number of overall misses (Count)
system.cpu.dcache.demandMissLatency::cpu.data  31433147749                       # number of demand (read+write) miss ticks (Tick)
system.cpu.dcache.demandMissLatency::total  31433147749                       # number of demand (read+write) miss ticks (Tick)
system.cpu.dcache.overallMissLatency::cpu.data  31433147749                       # number of overall miss ticks (Tick)
system.cpu.dcache.overallMissLatency::total  31433147749                       # number of overall miss ticks (Tick)
system.cpu.dcache.demandAccesses::cpu.data     18001028                       # number of demand (read+write) accesses (Count)
system.cpu.dcache.demandAccesses::total      18001028                       # number of demand (read+write) accesses (Count)
system.cpu.dcache.overallAccesses::cpu.data     18001028                       # number of overall (read+write) accesses (Count)
system.cpu.dcache.overallAccesses::total     18001028                       # number of overall (read+write) accesses (Count)
system.cpu.dcache.demandMissRate::cpu.data     0.026287                       # miss rate for demand accesses (Ratio)
system.cpu.dcache.demandMissRate::total      0.026287                       # miss rate for demand accesses (Ratio)
system.cpu.dcache.overallMissRate::cpu.data     0.026287                       # miss rate for overall accesses (Ratio)
system.cpu.dcache.overallMissRate::total     0.026287                       # miss rate for overall accesses (Ratio)
system.cpu.dcache.demandAvgMissLatency::cpu.data 66428.174199                       # average overall miss latency in ticks ((Tick/Count))
system.cpu.dcache.demandAvgMissLatency::total 66428.174199                       # average overall miss latency in ticks ((Tick/Count))
system.cpu.dcache.overallAvgMissLatency::cpu.data 66428.174199                       # average overall miss latency ((Tick/Count))
system.cpu.dcache.overallAvgMissLatency::total 66428.174199                       # average overall miss latency ((Tick/Count))
system.cpu.dcache.blockedCycles::no_mshrs         4809                       # number of cycles access was blocked (Cycle)
system.cpu.dcache.blockedCycles::no_targets            0                       # number of cycles access was blocked (Cycle)
system.cpu.dcache.blockedCauses::no_mshrs           37                       # number of times access was blocked (Count)
system.cpu.dcache.blockedCauses::no_targets            0                       # number of times access was blocked (Count)
system.cpu.dcache.avgBlocked::no_mshrs     129.972973                       # average number of cycles each access was blocked ((Cycle/Count))
system.cpu.dcache.avgBlocked::no_targets          nan                       # average number of cycles each access was blocked ((Cycle/Count))
system.cpu.dcache.writebacks::writebacks       763580                       # number of writebacks (Count)
system.cpu.dcache.writebacks::total            763580                       # number of writebacks (Count)
system.cpu.dcache.demandMshrHits::cpu.data        69862                       # number of demand (read+write) MSHR hits (Count)
system.cpu.dcache.demandMshrHits::total         69862                       # number of demand (read+write) MSHR hits (Count)
system.cpu.dcache.overallMshrHits::cpu.data        69862                       # number of overall MSHR hits (Count)
system.cpu.dcache.overallMshrHits::total        69862                       # number of overall MSHR hits (Count)
system.cpu.dcache.demandMshrMisses::cpu.data       403328                       # number of demand (read+write) MSHR misses (Count)
system.cpu.dcache.demandMshrMisses::total       403328                       # number of demand (read+write) MSHR misses (Count)
system.cpu.dcache.overallMshrMisses::cpu.data       403328                       # number of overall MSHR misses (Count)
system.cpu.dcache.overallMshrMisses::cpu.dcache.prefetcher       503512                       # number of overall MSHR misses (Count)
system.cpu.dcache.overallMshrMisses::total       906840                       # number of overall MSHR misses (Count)
system.cpu.dcache.demandMshrMissLatency::cpu.data  27864390749                       # number of demand (read+write) MSHR miss ticks (Tick)
system.cpu.dcache.demandMshrMissLatency::total  27864390749                       # number of demand (read+write) MSHR miss ticks (Tick)
system.cpu.dcache.overallMshrMissLatency::cpu.data  27864390749                       # number of overall MSHR miss ticks (Tick)
system.cpu.dcache.overallMshrMissLatency::cpu.dcache.prefetcher  31789036356                       # number of overall MSHR miss ticks (Tick)
system.cpu.dcache.overallMshrMissLatency::total  59653427105                       # number of overall MSHR miss ticks (Tick)
system.cpu.dcache.demandMshrMissRate::cpu.data     0.022406                       # mshr miss ratio for demand accesses (Ratio)
system.cpu.dcache.demandMshrMissRate::total     0.022406                       # mshr miss ratio for demand accesses (Ratio)
system.cpu.dcache.overallMshrMissRate::cpu.data     0.022406                       # mshr miss ratio for overall accesses (Ratio)
system.cpu.dcache.overallMshrMissRate::cpu.dcache.prefetcher          inf                       # mshr miss ratio for overall accesses (Ratio)
system.cpu.dcache.overallMshrMissRate::total     0.050377                       # mshr miss ratio for overall accesses (Ratio)
system.cpu.dcache.demandAvgMshrMissLatency::cpu.data 69086.179856                       # average overall mshr miss latency ((Tick/Count))
system.cpu.dcache.demandAvgMshrMissLatency::total 69086.179856                       # average overall mshr miss latency ((Tick/Count))
system.cpu.dcache.overallAvgMshrMissLatency::cpu.data 69086.179856                       # average overall mshr miss latency ((Tick/Count))
system.cpu.dcache.overallAvgMshrMissLatency::cpu.dcache.prefetcher 63134.615175                       # average overall mshr miss latency ((Tick/Count))
system.cpu.dcache.overallAvgMshrMissLatency::total 65781.645169                       # average overall mshr miss latency ((Tick/Count))
system.cpu.dcache.replacements                 905816                       # number of replacements (Count)
system.cpu.dcache.HardPFReq.mshrMisses::cpu.dcache.prefetcher       503512                       # number of HardPFReq MSHR misses (Count)
system.cpu.dcache.HardPFReq.mshrMisses::total       503512                       # number of HardPFReq MSHR misses (Count)
system.cpu.dcache.HardPFReq.mshrMissLatency::cpu.dcache.prefetcher  31789036356                       # number of HardPFReq MSHR miss ticks (Tick)
system.cpu.dcache.HardPFReq.mshrMissLatency::total  31789036356                       # number of HardPFReq MSHR miss ticks (Tick)
system.cpu.dcache.HardPFReq.mshrMissRate::cpu.dcache.prefetcher          inf                       # mshr miss rate for HardPFReq accesses (Ratio)
system.cpu.dcache.HardPFReq.mshrMissRate::total          inf                       # mshr miss rate for HardPFReq accesses (Ratio)
system.cpu.dcache.HardPFReq.avgMshrMissLatency::cpu.dcache.prefetcher 63134.615175                       # average HardPFReq mshr miss latency ((Tick/Count))
system.cpu.dcache.HardPFReq.avgMshrMissLatency::total 63134.615175                       # average HardPFReq mshr miss latency ((Tick/Count))
system.cpu.dcache.LockedRMWReadReq.hits::cpu.data            4                       # number of LockedRMWReadReq hits (Count)
system.cpu.dcache.LockedRMWReadReq.hits::total            4                       # number of LockedRMWReadReq hits (Count)
system.cpu.dcache.LockedRMWReadReq.accesses::cpu.data            4                       # number of LockedRMWReadReq accesses(hits+misses) (Count)
system.cpu.dcache.LockedRMWReadReq.accesses::total            4                       # number of LockedRMWReadReq accesses(hits+misses) (Count)
system.cpu.dcache.LockedRMWReadReq.mshrMissLatency::cpu.data        11500                       # number of LockedRMWReadReq MSHR miss ticks (Tick)
system.cpu.dcache.LockedRMWReadReq.mshrMissLatency::total        11500                       # number of LockedRMWReadReq MSHR miss ticks (Tick)
system.cpu.dcache.LockedRMWReadReq.avgMshrMissLatency::cpu.data          inf                       # average LockedRMWReadReq mshr miss latency ((Tick/Count))
system.cpu.dcache.LockedRMWReadReq.avgMshrMissLatency::total          inf                       # average LockedRMWReadReq mshr miss latency ((Tick/Count))
system.cpu.dcache.LockedRMWWriteReq.hits::cpu.data            4                       # number of LockedRMWWriteReq hits (Count)
system.cpu.dcache.LockedRMWWriteReq.hits::total            4                       # number of LockedRMWWriteReq hits (Count)
system.cpu.dcache.LockedRMWWriteReq.accesses::cpu.data            4                       # number of LockedRMWWriteReq accesses(hits+misses) (Count)
system.cpu.dcache.LockedRMWWriteReq.accesses::total            4                       # number of LockedRMWWriteReq accesses(hits+misses) (Count)
system.cpu.dcache.ReadReq.hits::cpu.data     11595925                       # number of ReadReq hits (Count)
system.cpu.dcache.ReadReq.hits::total        11595925                       # number of ReadReq hits (Count)
system.cpu.dcache.ReadReq.misses::cpu.data         6584                       # number of ReadReq misses (Count)
system.cpu.dcache.ReadReq.misses::total          6584                       # number of ReadReq misses (Count)
system.cpu.dcache.ReadReq.missLatency::cpu.data    408267500                       # number of ReadReq miss ticks (Tick)
system.cpu.dcache.ReadReq.missLatency::total    408267500                       # number of ReadReq miss ticks (Tick)
system.cpu.dcache.ReadReq.accesses::cpu.data     11602509                       # number of ReadReq accesses(hits+misses) (Count)
system.cpu.dcache.ReadReq.accesses::total     11602509                       # number of ReadReq accesses(hits+misses) (Count)
system.cpu.dcache.ReadReq.missRate::cpu.data     0.000567                       # miss rate for ReadReq accesses (Ratio)
system.cpu.dcache.ReadReq.missRate::total     0.000567                       # miss rate for ReadReq accesses (Ratio)
system.cpu.dcache.ReadReq.avgMissLatency::cpu.data 62009.037060                       # average ReadReq miss latency ((Tick/Count))
system.cpu.dcache.ReadReq.avgMissLatency::total 62009.037060                       # average ReadReq miss latency ((Tick/Count))
system.cpu.dcache.ReadReq.mshrHits::cpu.data          671                       # number of ReadReq MSHR hits (Count)
system.cpu.dcache.ReadReq.mshrHits::total          671                       # number of ReadReq MSHR hits (Count)
system.cpu.dcache.ReadReq.mshrMisses::cpu.data         5913                       # number of ReadReq MSHR misses (Count)
system.cpu.dcache.ReadReq.mshrMisses::total         5913                       # number of ReadReq MSHR misses (Count)
system.cpu.dcache.ReadReq.mshrMissLatency::cpu.data    371969500                       # number of ReadReq MSHR miss ticks (Tick)
system.cpu.dcache.ReadReq.mshrMissLatency::total    371969500                       # number of ReadReq MSHR miss ticks (Tick)
system.cpu.dcache.ReadReq.mshrMissRate::cpu.data     0.000510                       # mshr miss rate for ReadReq accesses (Ratio)
system.cpu.dcache.ReadReq.mshrMissRate::total     0.000510                       # mshr miss rate for ReadReq accesses (Ratio)
system.cpu.dcache.ReadReq.avgMshrMissLatency::cpu.data 62907.069170                       # average ReadReq mshr miss latency ((Tick/Count))
system.cpu.dcache.ReadReq.avgMshrMissLatency::total 62907.069170                       # average ReadReq mshr miss latency ((Tick/Count))
system.cpu.dcache.WriteReq.hits::cpu.data      5931913                       # number of WriteReq hits (Count)
system.cpu.dcache.WriteReq.hits::total        5931913                       # number of WriteReq hits (Count)
system.cpu.dcache.WriteReq.misses::cpu.data       466606                       # number of WriteReq misses (Count)
system.cpu.dcache.WriteReq.misses::total       466606                       # number of WriteReq misses (Count)
system.cpu.dcache.WriteReq.missLatency::cpu.data  31024880249                       # number of WriteReq miss ticks (Tick)
system.cpu.dcache.WriteReq.missLatency::total  31024880249                       # number of WriteReq miss ticks (Tick)
system.cpu.dcache.WriteReq.accesses::cpu.data      6398519                       # number of WriteReq accesses(hits+misses) (Count)
system.cpu.dcache.WriteReq.accesses::total      6398519                       # number of WriteReq accesses(hits+misses) (Count)
system.cpu.dcache.WriteReq.missRate::cpu.data     0.072924                       # miss rate for WriteReq accesses (Ratio)
system.cpu.dcache.WriteReq.missRate::total     0.072924                       # miss rate for WriteReq accesses (Ratio)
system.cpu.dcache.WriteReq.avgMissLatency::cpu.data 66490.530017                       # average WriteReq miss latency ((Tick/Count))
system.cpu.dcache.WriteReq.avgMissLatency::total 66490.530017                       # average WriteReq miss latency ((Tick/Count))
system.cpu.dcache.WriteReq.mshrHits::cpu.data        69191                       # number of WriteReq MSHR hits (Count)
system.cpu.dcache.WriteReq.mshrHits::total        69191                       # number of WriteReq MSHR hits (Count)
system.cpu.dcache.WriteReq.mshrMisses::cpu.data       397415                       # number of WriteReq MSHR misses (Count)
system.cpu.dcache.WriteReq.mshrMisses::total       397415                       # number of WriteReq MSHR misses (Count)
system.cpu.dcache.WriteReq.mshrMissLatency::cpu.data  27492421249                       # number of WriteReq MSHR miss ticks (Tick)
system.cpu.dcache.WriteReq.mshrMissLatency::total  27492421249                       # number of WriteReq MSHR miss ticks (Tick)
system.cpu.dcache.WriteReq.mshrMissRate::cpu.data     0.062110                       # mshr miss rate for WriteReq accesses (Ratio)
system.cpu.dcache.WriteReq.mshrMissRate::total     0.062110                       # mshr miss rate for WriteReq accesses (Ratio)
system.cpu.dcache.WriteReq.avgMshrMissLatency::cpu.data 69178.116702                       # average WriteReq mshr miss latency ((Tick/Count))
system.cpu.dcache.WriteReq.avgMshrMissLatency::total 69178.116702                       # average WriteReq mshr miss latency ((Tick/Count))
system.cpu.dcache.power_state.pwrStateResidencyTicks::UNDEFINED  39036295000                       # Cumulative time (in ticks) in various power states (Tick)
system.cpu.dcache.prefetcher.demandMshrMisses       403328                       # demands not covered by prefetchs (Count)
system.cpu.dcache.prefetcher.pfIssued          642606                       # number of hwpf issued (Count)
system.cpu.dcache.prefetcher.pfUnused          127349                       # number of HardPF blocks evicted w/o reference (Count)
system.cpu.dcache.prefetcher.pfUseful          306943                       # number of useful prefetch (Count)
system.cpu.dcache.prefetcher.pfUsefulButMiss            0                       # number of hit on prefetch but cache block is not in an usable state (Count)
system.cpu.dcache.prefetcher.accuracy        0.477653                       # accuracy of the prefetcher (Count)
system.cpu.dcache.prefetcher.coverage        0.432149                       # coverage brought by this prefetcher (Count)
system.cpu.dcache.prefetcher.pfHitInCache       136479                       # number of prefetches hitting in cache (Count)
system.cpu.dcache.prefetcher.pfHitInMSHR         2615                       # number of prefetches hitting in a MSHR (Count)
system.cpu.dcache.prefetcher.pfHitInWB              0                       # number of prefetches hit in the Write Buffer (Count)
system.cpu.dcache.prefetcher.pfLate            139094                       # number of late prefetches (hitting in cache, MSHR or WB) (Count)
system.cpu.dcache.prefetcher.pfIdentified       810817                       # number of prefetch candidates identified (Count)
system.cpu.dcache.prefetcher.pfBufferHit       129382                       # number of redundant prefetches already in prefetch queue (Count)
system.cpu.dcache.prefetcher.pfInCache              0                       # number of redundant prefetches already in cache/mshr dropped (Count)
system.cpu.dcache.prefetcher.pfRemovedDemand        29753                       # number of prefetches dropped due to a demand for the same address (Count)
system.cpu.dcache.prefetcher.pfRemovedFull            0                       # number of prefetches dropped due to prefetch queue size (Count)
system.cpu.dcache.prefetcher.pfSpanPage        102211                       # number of prefetches that crossed the page (Count)
system.cpu.dcache.prefetcher.pfUsefulSpanPage            0                       # number of prefetches that is useful and crossed the page (Count)
system.cpu.dcache.prefetcher.ampm.power_state.pwrStateResidencyTicks::UNDEFINED  39036295000                       # Cumulative time (in ticks) in various power states (Tick)
system.cpu.dcache.prefetcher.power_state.pwrStateResidencyTicks::UNDEFINED  39036295000                       # Cumulative time (in ticks) in various power states (Tick)
system.cpu.dcache.tags.tagsInUse          1022.991547                       # Average ticks per tags in use ((Tick/Count))
system.cpu.dcache.tags.totalRefs             18434686                       # Total number of references to valid blocks. (Count)
system.cpu.dcache.tags.sampledRefs             906840                       # Sample count of references to valid blocks. (Count)
system.cpu.dcache.tags.avgRefs              20.328488                       # Average number of references to valid blocks. ((Count/Count))
system.cpu.dcache.tags.warmupTick              143000                       # The tick when the warmup percentage was hit. (Tick)
system.cpu.dcache.tags.occupancies::cpu.data   475.116231                       # Average occupied blocks per tick, per requestor ((Count/Tick))
system.cpu.dcache.tags.occupancies::cpu.dcache.prefetcher   547.875316                       # Average occupied blocks per tick, per requestor ((Count/Tick))
system.cpu.dcache.tags.avgOccs::cpu.data     0.463981                       # Average percentage of cache occupancy ((Ratio/Tick))
system.cpu.dcache.tags.avgOccs::cpu.dcache.prefetcher     0.535034                       # Average percentage of cache occupancy ((Ratio/Tick))
system.cpu.dcache.tags.avgOccs::total        0.999015                       # Average percentage of cache occupancy ((Ratio/Tick))
system.cpu.dcache.tags.occupanciesTaskId::1022          642                       # Occupied blocks per task id (Count)
system.cpu.dcache.tags.occupanciesTaskId::1024          382                       # Occupied blocks per task id (Count)
system.cpu.dcache.tags.ageTaskId_1022::0           38                       # Occupied blocks per task id, per block age (Count)
system.cpu.dcache.tags.ageTaskId_1022::1          161                       # Occupied blocks per task id, per block age (Count)
system.cpu.dcache.tags.ageTaskId_1022::2          443                       # Occupied blocks per task id, per block age (Count)
system.cpu.dcache.tags.ageTaskId_1024::0           40                       # Occupied blocks per task id, per block age (Count)
system.cpu.dcache.tags.ageTaskId_1024::1           90                       # Occupied blocks per task id, per block age (Count)
system.cpu.dcache.tags.ageTaskId_1024::2          250                       # Occupied blocks per task id, per block age (Count)
system.cpu.dcache.tags.ageTaskId_1024::4            2                       # Occupied blocks per task id, per block age (Count)
system.cpu.dcache.tags.ratioOccsTaskId::1022     0.626953                       # Ratio of occupied blocks and all blocks, per task id (Ratio)
system.cpu.dcache.tags.ratioOccsTaskId::1024     0.373047                       # Ratio of occupied blocks and all blocks, per task id (Ratio)
system.cpu.dcache.tags.tagAccesses           36908912                       # Number of tag accesses (Count)
system.cpu.dcache.tags.dataAccesses          36908912                       # Number of data accesses (Count)
system.cpu.dcache.tags.power_state.pwrStateResidencyTicks::UNDEFINED  39036295000                       # Cumulative time (in ticks) in various power states (Tick)
system.cpu.decode.idleCycles                  2793008                       # Number of cycles decode is idle (Cycle)
system.cpu.decode.blockedCycles             145876588                       # Number of cycles decode is blocked (Cycle)
system.cpu.decode.runCycles                    675085                       # Number of cycles decode is running (Cycle)
system.cpu.decode.unblockCycles               6734669                       # Number of cycles decode is unblocking (Cycle)
system.cpu.decode.squashCycles                   1448                       # Number of cycles decode is squashing (Cycle)
system.cpu.decode.branchResolved              3204010                       # Number of times decode resolved a branch (Count)
system.cpu.decode.branchMispred                   233                       # Number of times decode detected a branch misprediction (Count)
system.cpu.decode.decodedInsts               59264007                       # Number of instructions handled by decode (Count)
system.cpu.decode.squashedInsts                  1145                       # Number of squashed instructions handled by decode (Count)
system.cpu.dtb_walker_cache.blockedCycles::no_mshrs            0                       # number of cycles access was blocked (Cycle)
system.cpu.dtb_walker_cache.blockedCycles::no_targets            0                       # number of cycles access was blocked (Cycle)
system.cpu.dtb_walker_cache.blockedCauses::no_mshrs            0                       # number of times access was blocked (Count)
system.cpu.dtb_walker_cache.blockedCauses::no_targets            0                       # number of times access was blocked (Count)
system.cpu.dtb_walker_cache.avgBlocked::no_mshrs          nan                       # average number of cycles each access was blocked ((Cycle/Count))
system.cpu.dtb_walker_cache.avgBlocked::no_targets          nan                       # average number of cycles each access was blocked ((Cycle/Count))
system.cpu.dtb_walker_cache.replacements            0                       # number of replacements (Count)
system.cpu.dtb_walker_cache.power_state.pwrStateResidencyTicks::UNDEFINED  39036295000                       # Cumulative time (in ticks) in various power states (Tick)
system.cpu.dtb_walker_cache.tags.tagsInUse            0                       # Average ticks per tags in use ((Tick/Count))
system.cpu.dtb_walker_cache.tags.totalRefs            0                       # Total number of references to valid blocks. (Count)
system.cpu.dtb_walker_cache.tags.sampledRefs            0                       # Sample count of references to valid blocks. (Count)
system.cpu.dtb_walker_cache.tags.avgRefs          nan                       # Average number of references to valid blocks. ((Count/Count))
system.cpu.dtb_walker_cache.tags.warmupTick            0                       # The tick when the warmup percentage was hit. (Tick)
system.cpu.dtb_walker_cache.tags.tagAccesses            0                       # Number of tag accesses (Count)
system.cpu.dtb_walker_cache.tags.dataAccesses            0                       # Number of data accesses (Count)
system.cpu.dtb_walker_cache.tags.power_state.pwrStateResidencyTicks::UNDEFINED  39036295000                       # Cumulative time (in ticks) in various power states (Tick)
system.cpu.fetch.icacheStallCycles            2024582                       # Number of cycles fetch is stalled on an Icache miss (Cycle)
system.cpu.fetch.insts                       35053195                       # Number of instructions fetch has processed (Count)
system.cpu.fetch.branches                     3208836                       # Number of branches that fetch encountered (Count)
system.cpu.fetch.predictedBranches            3205908                       # Number of branches that fetch has predicted taken (Count)
system.cpu.fetch.cycles                     154052941                       # Number of cycles fetch has run and was not squashing or blocked (Cycle)
system.cpu.fetch.squashCycles                    3356                       # Number of cycles fetch has spent squashing (Cycle)
system.cpu.fetch.miscStallCycles                  230                       # Number of cycles fetch has spent waiting on interrupts, or bad addresses, or out of MSHRs (Cycle)
system.cpu.fetch.pendingTrapStallCycles          1367                       # Number of stall cycles due to pending traps (Cycle)
system.cpu.fetch.cacheLines                   2006044                       # Number of cache lines fetched (Count)
system.cpu.fetch.icacheSquashes                   364                       # Number of outstanding Icache misses that were squashed (Count)
system.cpu.fetch.nisnDist::samples          156080798                       # Number of instructions fetched each cycle (Total) (Count)
system.cpu.fetch.nisnDist::mean              0.379910                       # Number of instructions fetched each cycle (Total) (Count)
system.cpu.fetch.nisnDist::stdev             1.652800                       # Number of instructions fetched each cycle (Total) (Count)
system.cpu.fetch.nisnDist::underflows               0      0.00%      0.00% # Number of instructions fetched each cycle (Total) (Count)
system.cpu.fetch.nisnDist::0                147210513     94.32%     94.32% # Number of instructions fetched each cycle (Total) (Count)
system.cpu.fetch.nisnDist::1                  1002331      0.64%     94.96% # Number of instructions fetched each cycle (Total) (Count)
system.cpu.fetch.nisnDist::2                   372979      0.24%     95.20% # Number of instructions fetched each cycle (Total) (Count)
system.cpu.fetch.nisnDist::3                    82346      0.05%     95.25% # Number of instructions fetched each cycle (Total) (Count)
system.cpu.fetch.nisnDist::4                      519      0.00%     95.25% # Number of instructions fetched each cycle (Total) (Count)
system.cpu.fetch.nisnDist::5                    83422      0.05%     95.30% # Number of instructions fetched each cycle (Total) (Count)
system.cpu.fetch.nisnDist::6                   372468      0.24%     95.54% # Number of instructions fetched each cycle (Total) (Count)
system.cpu.fetch.nisnDist::7                  1002354      0.64%     96.19% # Number of instructions fetched each cycle (Total) (Count)
system.cpu.fetch.nisnDist::8                  5953866      3.81%    100.00% # Number of instructions fetched each cycle (Total) (Count)
system.cpu.fetch.nisnDist::overflows                0      0.00%    100.00% # Number of instructions fetched each cycle (Total) (Count)
system.cpu.fetch.nisnDist::min_value                0                       # Number of instructions fetched each cycle (Total) (Count)
system.cpu.fetch.nisnDist::max_value                8                       # Number of instructions fetched each cycle (Total) (Count)
system.cpu.fetch.nisnDist::total            156080798                       # Number of instructions fetched each cycle (Total) (Count)
system.cpu.fetch.branchRate                  0.020550                       # Number of branch fetches per cycle (Ratio)
system.cpu.fetch.rate                        0.224491                       # Number of inst fetches per cycle ((Count/Cycle))
system.cpu.icache.demandHits::cpu.inst        2005427                       # number of demand (read+write) hits (Count)
system.cpu.icache.demandHits::total           2005427                       # number of demand (read+write) hits (Count)
system.cpu.icache.overallHits::cpu.inst       2005427                       # number of overall hits (Count)
system.cpu.icache.overallHits::total          2005427                       # number of overall hits (Count)
system.cpu.icache.demandMisses::cpu.inst          617                       # number of demand (read+write) misses (Count)
system.cpu.icache.demandMisses::total             617                       # number of demand (read+write) misses (Count)
system.cpu.icache.overallMisses::cpu.inst          617                       # number of overall misses (Count)
system.cpu.icache.overallMisses::total            617                       # number of overall misses (Count)
system.cpu.icache.demandMissLatency::cpu.inst     35170500                       # number of demand (read+write) miss ticks (Tick)
system.cpu.icache.demandMissLatency::total     35170500                       # number of demand (read+write) miss ticks (Tick)
system.cpu.icache.overallMissLatency::cpu.inst     35170500                       # number of overall miss ticks (Tick)
system.cpu.icache.overallMissLatency::total     35170500                       # number of overall miss ticks (Tick)
system.cpu.icache.demandAccesses::cpu.inst      2006044                       # number of demand (read+write) accesses (Count)
system.cpu.icache.demandAccesses::total       2006044                       # number of demand (read+write) accesses (Count)
system.cpu.icache.overallAccesses::cpu.inst      2006044                       # number of overall (read+write) accesses (Count)
system.cpu.icache.overallAccesses::total      2006044                       # number of overall (read+write) accesses (Count)
system.cpu.icache.demandMissRate::cpu.inst     0.000308                       # miss rate for demand accesses (Ratio)
system.cpu.icache.demandMissRate::total      0.000308                       # miss rate for demand accesses (Ratio)
system.cpu.icache.overallMissRate::cpu.inst     0.000308                       # miss rate for overall accesses (Ratio)
system.cpu.icache.overallMissRate::total     0.000308                       # miss rate for overall accesses (Ratio)
system.cpu.icache.demandAvgMissLatency::cpu.inst 57002.431118                       # average overall miss latency in ticks ((Tick/Count))
system.cpu.icache.demandAvgMissLatency::total 57002.431118                       # average overall miss latency in ticks ((Tick/Count))
system.cpu.icache.overallAvgMissLatency::cpu.inst 57002.431118                       # average overall miss latency ((Tick/Count))
system.cpu.icache.overallAvgMissLatency::total 57002.431118                       # average overall miss latency ((Tick/Count))
system.cpu.icache.blockedCycles::no_mshrs          227                       # number of cycles access was blocked (Cycle)
system.cpu.icache.blockedCycles::no_targets            0                       # number of cycles access was blocked (Cycle)
system.cpu.icache.blockedCauses::no_mshrs            2                       # number of times access was blocked (Count)
system.cpu.icache.blockedCauses::no_targets            0                       # number of times access was blocked (Count)
system.cpu.icache.avgBlocked::no_mshrs     113.500000                       # average number of cycles each access was blocked ((Cycle/Count))
system.cpu.icache.avgBlocked::no_targets          nan                       # average number of cycles each access was blocked ((Cycle/Count))
system.cpu.icache.writebacks::writebacks           29                       # number of writebacks (Count)
system.cpu.icache.writebacks::total                29                       # number of writebacks (Count)
system.cpu.icache.demandMshrHits::cpu.inst          132                       # number of demand (read+write) MSHR hits (Count)
system.cpu.icache.demandMshrHits::total           132                       # number of demand (read+write) MSHR hits (Count)
system.cpu.icache.overallMshrHits::cpu.inst          132                       # number of overall MSHR hits (Count)
system.cpu.icache.overallMshrHits::total          132                       # number of overall MSHR hits (Count)
system.cpu.icache.demandMshrMisses::cpu.inst          485                       # number of demand (read+write) MSHR misses (Count)
system.cpu.icache.demandMshrMisses::total          485                       # number of demand (read+write) MSHR misses (Count)
system.cpu.icache.overallMshrMisses::cpu.inst          485                       # number of overall MSHR misses (Count)
system.cpu.icache.overallMshrMisses::total          485                       # number of overall MSHR misses (Count)
system.cpu.icache.demandMshrMissLatency::cpu.inst     28769250                       # number of demand (read+write) MSHR miss ticks (Tick)
system.cpu.icache.demandMshrMissLatency::total     28769250                       # number of demand (read+write) MSHR miss ticks (Tick)
system.cpu.icache.overallMshrMissLatency::cpu.inst     28769250                       # number of overall MSHR miss ticks (Tick)
system.cpu.icache.overallMshrMissLatency::total     28769250                       # number of overall MSHR miss ticks (Tick)
system.cpu.icache.demandMshrMissRate::cpu.inst     0.000242                       # mshr miss ratio for demand accesses (Ratio)
system.cpu.icache.demandMshrMissRate::total     0.000242                       # mshr miss ratio for demand accesses (Ratio)
system.cpu.icache.overallMshrMissRate::cpu.inst     0.000242                       # mshr miss ratio for overall accesses (Ratio)
system.cpu.icache.overallMshrMissRate::total     0.000242                       # mshr miss ratio for overall accesses (Ratio)
system.cpu.icache.demandAvgMshrMissLatency::cpu.inst 59318.041237                       # average overall mshr miss latency ((Tick/Count))
system.cpu.icache.demandAvgMshrMissLatency::total 59318.041237                       # average overall mshr miss latency ((Tick/Count))
system.cpu.icache.overallAvgMshrMissLatency::cpu.inst 59318.041237                       # average overall mshr miss latency ((Tick/Count))
system.cpu.icache.overallAvgMshrMissLatency::total 59318.041237                       # average overall mshr miss latency ((Tick/Count))
system.cpu.icache.replacements                     29                       # number of replacements (Count)
system.cpu.icache.ReadReq.hits::cpu.inst      2005427                       # number of ReadReq hits (Count)
system.cpu.icache.ReadReq.hits::total         2005427                       # number of ReadReq hits (Count)
system.cpu.icache.ReadReq.misses::cpu.inst          617                       # number of ReadReq misses (Count)
system.cpu.icache.ReadReq.misses::total           617                       # number of ReadReq misses (Count)
system.cpu.icache.ReadReq.missLatency::cpu.inst     35170500                       # number of ReadReq miss ticks (Tick)
system.cpu.icache.ReadReq.missLatency::total     35170500                       # number of ReadReq miss ticks (Tick)
system.cpu.icache.ReadReq.accesses::cpu.inst      2006044                       # number of ReadReq accesses(hits+misses) (Count)
system.cpu.icache.ReadReq.accesses::total      2006044                       # number of ReadReq accesses(hits+misses) (Count)
system.cpu.icache.ReadReq.missRate::cpu.inst     0.000308                       # miss rate for ReadReq accesses (Ratio)
system.cpu.icache.ReadReq.missRate::total     0.000308                       # miss rate for ReadReq accesses (Ratio)
system.cpu.icache.ReadReq.avgMissLatency::cpu.inst 57002.431118                       # average ReadReq miss latency ((Tick/Count))
system.cpu.icache.ReadReq.avgMissLatency::total 57002.431118                       # average ReadReq miss latency ((Tick/Count))
system.cpu.icache.ReadReq.mshrHits::cpu.inst          132                       # number of ReadReq MSHR hits (Count)
system.cpu.icache.ReadReq.mshrHits::total          132                       # number of ReadReq MSHR hits (Count)
system.cpu.icache.ReadReq.mshrMisses::cpu.inst          485                       # number of ReadReq MSHR misses (Count)
system.cpu.icache.ReadReq.mshrMisses::total          485                       # number of ReadReq MSHR misses (Count)
system.cpu.icache.ReadReq.mshrMissLatency::cpu.inst     28769250                       # number of ReadReq MSHR miss ticks (Tick)
system.cpu.icache.ReadReq.mshrMissLatency::total     28769250                       # number of ReadReq MSHR miss ticks (Tick)
system.cpu.icache.ReadReq.mshrMissRate::cpu.inst     0.000242                       # mshr miss rate for ReadReq accesses (Ratio)
system.cpu.icache.ReadReq.mshrMissRate::total     0.000242                       # mshr miss rate for ReadReq accesses (Ratio)
system.cpu.icache.ReadReq.avgMshrMissLatency::cpu.inst 59318.041237                       # average ReadReq mshr miss latency ((Tick/Count))
system.cpu.icache.ReadReq.avgMshrMissLatency::total 59318.041237                       # average ReadReq mshr miss latency ((Tick/Count))
system.cpu.icache.power_state.pwrStateResidencyTicks::UNDEFINED  39036295000                       # Cumulative time (in ticks) in various power states (Tick)
system.cpu.icache.tags.tagsInUse           417.025958                       # Average ticks per tags in use ((Tick/Count))
system.cpu.icache.tags.totalRefs              2005911                       # Total number of references to valid blocks. (Count)
system.cpu.icache.tags.sampledRefs                484                       # Sample count of references to valid blocks. (Count)
system.cpu.icache.tags.avgRefs            4144.444215                       # Average number of references to valid blocks. ((Count/Count))
system.cpu.icache.tags.warmupTick               77000                       # The tick when the warmup percentage was hit. (Tick)
system.cpu.icache.tags.occupancies::cpu.inst   417.025958                       # Average occupied blocks per tick, per requestor ((Count/Tick))
system.cpu.icache.tags.avgOccs::cpu.inst     0.407252                       # Average percentage of cache occupancy ((Ratio/Tick))
system.cpu.icache.tags.avgOccs::total        0.407252                       # Average percentage of cache occupancy ((Ratio/Tick))
system.cpu.icache.tags.occupanciesTaskId::1024          455                       # Occupied blocks per task id (Count)
system.cpu.icache.tags.ageTaskId_1024::0           39                       # Occupied blocks per task id, per block age (Count)
system.cpu.icache.tags.ageTaskId_1024::3            1                       # Occupied blocks per task id, per block age (Count)
system.cpu.icache.tags.ageTaskId_1024::4          415                       # Occupied blocks per task id, per block age (Count)
system.cpu.icache.tags.ratioOccsTaskId::1024     0.444336                       # Ratio of occupied blocks and all blocks, per task id (Ratio)
system.cpu.icache.tags.tagAccesses            4012572                       # Number of tag accesses (Count)
system.cpu.icache.tags.dataAccesses           4012572                       # Number of data accesses (Count)
system.cpu.icache.tags.power_state.pwrStateResidencyTicks::UNDEFINED  39036295000                       # Cumulative time (in ticks) in various power states (Tick)
system.cpu.iew.idleCycles                           0                       # Number of cycles IEW is idle (Cycle)
system.cpu.iew.squashCycles                      1448                       # Number of cycles IEW is squashing (Cycle)
system.cpu.iew.blockCycles                    1400802                       # Number of cycles IEW is blocking (Cycle)
system.cpu.iew.unblockCycles                 40343960                       # Number of cycles IEW is unblocking (Cycle)
system.cpu.iew.dispatchedInsts               59252039                       # Number of instructions dispatched to IQ (Count)
system.cpu.iew.dispSquashedInsts                   59                       # Number of squashed instructions skipped by dispatch (Count)
system.cpu.iew.dispLoadInsts                 20207912                       # Number of dispatched load instructions (Count)
[...]
system.mem_ctrls.dram.bwTotal::writebacks   1251889299                       # Total bandwidth to/from this memory ((Byte/Second))
system.mem_ctrls.dram.bwTotal::cpu.inst        793518                       # Total bandwidth to/from this memory ((Byte/Second))
system.mem_ctrls.dram.bwTotal::cpu.data     661256198                       # Total bandwidth to/from this memory ((Byte/Second))
system.mem_ctrls.dram.bwTotal::cpu.dcache.prefetcher    825507851                       # Total bandwidth to/from this memory ((Byte/Second))
system.mem_ctrls.dram.bwTotal::total       2739446866                       # Total bandwidth to/from this memory ((Byte/Second))
system.mem_ctrls.dram.readBursts               907238                       # Number of DRAM read bursts (Count)
system.mem_ctrls.dram.writeBursts              763578                       # Number of DRAM write bursts (Count)
system.mem_ctrls.dram.perBankRdBursts::0        52201                       # Per bank write bursts (Count)
system.mem_ctrls.dram.perBankRdBursts::1        52252                       # Per bank write bursts (Count)
system.mem_ctrls.dram.perBankRdBursts::2        52175                       # Per bank write bursts (Count)
system.mem_ctrls.dram.perBankRdBursts::3        52036                       # Per bank write bursts (Count)
system.mem_ctrls.dram.perBankRdBursts::4        59193                       # Per bank write bursts (Count)
system.mem_ctrls.dram.perBankRdBursts::5        59307                       # Per bank write bursts (Count)
system.mem_ctrls.dram.perBankRdBursts::6        59212                       # Per bank write bursts (Count)
system.mem_ctrls.dram.perBankRdBursts::7        59324                       # Per bank write bursts (Count)
system.mem_ctrls.dram.perBankRdBursts::8        59391                       # Per bank write bursts (Count)
system.mem_ctrls.dram.perBankRdBursts::9        59404                       # Per bank write bursts (Count)
system.mem_ctrls.dram.perBankRdBursts::10        59550                       # Per bank write bursts (Count)
system.mem_ctrls.dram.perBankRdBursts::11        59488                       # Per bank write bursts (Count)
system.mem_ctrls.dram.perBankRdBursts::12        59377                       # Per bank write bursts (Count)
system.mem_ctrls.dram.perBankRdBursts::13        59397                       # Per bank write bursts (Count)
system.mem_ctrls.dram.perBankRdBursts::14        52898                       # Per bank write bursts (Count)
system.mem_ctrls.dram.perBankRdBursts::15        52033                       # Per bank write bursts (Count)
system.mem_ctrls.dram.perBankWrBursts::0        43823                       # Per bank write bursts (Count)
system.mem_ctrls.dram.perBankWrBursts::1        43859                       # Per bank write bursts (Count)
system.mem_ctrls.dram.perBankWrBursts::2        43824                       # Per bank write bursts (Count)
system.mem_ctrls.dram.perBankWrBursts::3        43832                       # Per bank write bursts (Count)
system.mem_ctrls.dram.perBankWrBursts::4        49768                       # Per bank write bursts (Count)
system.mem_ctrls.dram.perBankWrBursts::5        50054                       # Per bank write bursts (Count)
system.mem_ctrls.dram.perBankWrBursts::6        50023                       # Per bank write bursts (Count)
system.mem_ctrls.dram.perBankWrBursts::7        50044                       # Per bank write bursts (Count)
system.mem_ctrls.dram.perBankWrBursts::8        50074                       # Per bank write bursts (Count)
system.mem_ctrls.dram.perBankWrBursts::9        50032                       # Per bank write bursts (Count)
system.mem_ctrls.dram.perBankWrBursts::10        50044                       # Per bank write bursts (Count)
system.mem_ctrls.dram.perBankWrBursts::11        50056                       # Per bank write bursts (Count)
system.mem_ctrls.dram.perBankWrBursts::12        50019                       # Per bank write bursts (Count)
system.mem_ctrls.dram.perBankWrBursts::13        50029                       # Per bank write bursts (Count)
system.mem_ctrls.dram.perBankWrBursts::14        44278                       # Per bank write bursts (Count)
system.mem_ctrls.dram.perBankWrBursts::15        43819                       # Per bank write bursts (Count)
system.mem_ctrls.dram.totQLat             12821997085                       # Total ticks spent queuing (Tick)
system.mem_ctrls.dram.totBusLat            4536190000                       # Total ticks spent in databus transfers (Tick)
system.mem_ctrls.dram.totMemAccLat        29832709585                       # Total ticks spent from burst creation until serviced by the DRAM (Tick)
system.mem_ctrls.dram.avgQLat                14133.00                       # Average queueing delay per DRAM burst ((Tick/Count))
system.mem_ctrls.dram.avgBusLat               5000.00                       # Average bus latency per DRAM burst ((Tick/Count))
system.mem_ctrls.dram.avgMemAccLat           32883.00                       # Average memory access latency per DRAM burst ((Tick/Count))
system.mem_ctrls.dram.readRowHits              835569                       # Number of row buffer hits during reads (Count)
system.mem_ctrls.dram.writeRowHits             650816                       # Number of row buffer hits during writes (Count)
system.mem_ctrls.dram.readRowHitRate            92.10                       # Row buffer hit rate for reads (Ratio)
system.mem_ctrls.dram.writeRowHitRate           85.23                       # Row buffer hit rate for writes (Ratio)
system.mem_ctrls.dram.bytesPerActivate::samples       184422                       # Bytes accessed per row activation (Byte)
system.mem_ctrls.dram.bytesPerActivate::mean   579.814556                       # Bytes accessed per row activation (Byte)
system.mem_ctrls.dram.bytesPerActivate::gmean   385.167706                       # Bytes accessed per row activation (Byte)
system.mem_ctrls.dram.bytesPerActivate::stdev   401.254443                       # Bytes accessed per row activation (Byte)
system.mem_ctrls.dram.bytesPerActivate::0-127        29002     15.73%     15.73% # Bytes accessed per row activation (Byte)
system.mem_ctrls.dram.bytesPerActivate::128-255        29924     16.23%     31.95% # Bytes accessed per row activation (Byte)
system.mem_ctrls.dram.bytesPerActivate::256-383        16335      8.86%     40.81% # Bytes accessed per row activation (Byte)
system.mem_ctrls.dram.bytesPerActivate::384-511        11356      6.16%     46.97% # Bytes accessed per row activation (Byte)
system.mem_ctrls.dram.bytesPerActivate::512-639         8876      4.81%     51.78% # Bytes accessed per row activation (Byte)
system.mem_ctrls.dram.bytesPerActivate::640-767         7543      4.09%     55.87% # Bytes accessed per row activation (Byte)
system.mem_ctrls.dram.bytesPerActivate::768-895         6466      3.51%     59.38% # Bytes accessed per row activation (Byte)
system.mem_ctrls.dram.bytesPerActivate::896-1023         5929      3.21%     62.59% # Bytes accessed per row activation (Byte)
system.mem_ctrls.dram.bytesPerActivate::1024-1151        68991     37.41%    100.00% # Bytes accessed per row activation (Byte)
system.mem_ctrls.dram.bytesPerActivate::total       184422                       # Bytes accessed per row activation (Byte)
system.mem_ctrls.dram.bytesRead              58063232                       # Total bytes read (Byte)
system.mem_ctrls.dram.bytesWritten           48868992                       # Total bytes written (Byte)
system.mem_ctrls.dram.avgRdBW             1487.416570                       # Average DRAM read bandwidth in MiBytes/s ((Byte/Second))
system.mem_ctrls.dram.avgWrBW             1251.886020                       # Average DRAM write bandwidth in MiBytes/s ((Byte/Second))
system.mem_ctrls.dram.peakBW                 12800.00                       # Theoretical peak bandwidth in MiByte/s ((Byte/Second))
system.mem_ctrls.dram.busUtil                   21.40                       # Data bus utilization in percentage (Ratio)
system.mem_ctrls.dram.busUtilRead               11.62                       # Data bus utilization in percentage for reads (Ratio)
system.mem_ctrls.dram.busUtilWrite               9.78                       # Data bus utilization in percentage for writes (Ratio)
system.mem_ctrls.dram.pageHitRate               88.96                       # Row buffer hit rate, read and write combined (Ratio)
system.mem_ctrls.dram.power_state.pwrStateResidencyTicks::UNDEFINED  39036295000                       # Cumulative time (in ticks) in various power states (Tick)
system.mem_ctrls.dram.rank0.actEnergy       644392140                       # Energy for activate commands per rank (pJ) (Joule)
system.mem_ctrls.dram.rank0.preEnergy       342487365                       # Energy for precharge commands per rank (pJ) (Joule)
system.mem_ctrls.dram.rank0.readEnergy     3182298000                       # Energy for read commands per rank (pJ) (Joule)
system.mem_ctrls.dram.rank0.writeEnergy    1958684940                       # Energy for write commands per rank (pJ) (Joule)
system.mem_ctrls.dram.rank0.refreshEnergy 3081190320.000000                       # Energy for refresh commands per rank (pJ) (Joule)
system.mem_ctrls.dram.rank0.actBackEnergy  15479672400                       # Energy for active background per rank (pJ) (Joule)
system.mem_ctrls.dram.rank0.preBackEnergy   1954423680                       # Energy for precharge background per rank (pJ) (Joule)
system.mem_ctrls.dram.rank0.actPowerDownEnergy            0                       # Energy for active power-down per rank (pJ) (Joule)
system.mem_ctrls.dram.rank0.prePowerDownEnergy            0                       # Energy for precharge power-down per rank (pJ) (Joule)
system.mem_ctrls.dram.rank0.selfRefreshEnergy            0                       # Energy for self refresh per rank (pJ) (Joule)
system.mem_ctrls.dram.rank0.totalEnergy   26643148845                       # Total energy per rank (pJ) (Joule)
system.mem_ctrls.dram.rank0.averagePower   682.522479                       # Core power per rank (mW) (Watt)
system.mem_ctrls.dram.rank0.totalIdleTime            0                       # Total Idle time Per DRAM Rank (Tick)
system.mem_ctrls.dram.rank0.pwrStateTime::IDLE   4864582535                       # Time in different power states (Tick)
system.mem_ctrls.dram.rank0.pwrStateTime::REF   1303380000                       # Time in different power states (Tick)
system.mem_ctrls.dram.rank0.pwrStateTime::SREF            0                       # Time in different power states (Tick)
system.mem_ctrls.dram.rank0.pwrStateTime::PRE_PDN            0                       # Time in different power states (Tick)
system.mem_ctrls.dram.rank0.pwrStateTime::ACT  32868332465                       # Time in different power states (Tick)
system.mem_ctrls.dram.rank0.pwrStateTime::ACT_PDN            0                       # Time in different power states (Tick)
system.mem_ctrls.dram.rank1.actEnergy       672445200                       # Energy for activate commands per rank (pJ) (Joule)
system.mem_ctrls.dram.rank1.preEnergy       357394125                       # Energy for precharge commands per rank (pJ) (Joule)
system.mem_ctrls.dram.rank1.readEnergy     3295381320                       # Energy for read commands per rank (pJ) (Joule)
system.mem_ctrls.dram.rank1.writeEnergy    2027192220                       # Energy for write commands per rank (pJ) (Joule)
system.mem_ctrls.dram.rank1.refreshEnergy 3081190320.000000                       # Energy for refresh commands per rank (pJ) (Joule)
system.mem_ctrls.dram.rank1.actBackEnergy  15574206330                       # Energy for active background per rank (pJ) (Joule)
system.mem_ctrls.dram.rank1.preBackEnergy   1874816160                       # Energy for precharge background per rank (pJ) (Joule)
system.mem_ctrls.dram.rank1.actPowerDownEnergy            0                       # Energy for active power-down per rank (pJ) (Joule)
system.mem_ctrls.dram.rank1.prePowerDownEnergy            0                       # Energy for precharge power-down per rank (pJ) (Joule)
system.mem_ctrls.dram.rank1.selfRefreshEnergy            0                       # Energy for self refresh per rank (pJ) (Joule)
system.mem_ctrls.dram.rank1.totalEnergy   26882625675                       # Total energy per rank (pJ) (Joule)
system.mem_ctrls.dram.rank1.averagePower   688.657202                       # Core power per rank (mW) (Watt)
system.mem_ctrls.dram.rank1.totalIdleTime            0                       # Total Idle time Per DRAM Rank (Tick)
system.mem_ctrls.dram.rank1.pwrStateTime::IDLE   4655487133                       # Time in different power states (Tick)
system.mem_ctrls.dram.rank1.pwrStateTime::REF   1303380000                       # Time in different power states (Tick)
system.mem_ctrls.dram.rank1.pwrStateTime::SREF            0                       # Time in different power states (Tick)
system.mem_ctrls.dram.rank1.pwrStateTime::PRE_PDN            0                       # Time in different power states (Tick)
system.mem_ctrls.dram.rank1.pwrStateTime::ACT  33077427867                       # Time in different power states (Tick)
system.mem_ctrls.dram.rank1.pwrStateTime::ACT_PDN            0                       # Time in different power states (Tick)
system.mem_ctrls.power_state.pwrStateResidencyTicks::UNDEFINED  39036295000                       # Cumulative time (in ticks) in various power states (Tick)
system.membus.transDist::ReadResp              508118                       # Transaction distribution (Count)
system.membus.transDist::WritebackDirty        763580                       # Transaction distribution (Count)
system.membus.transDist::WritebackClean            29                       # Transaction distribution (Count)
system.membus.transDist::CleanEvict            142236                       # Transaction distribution (Count)
system.membus.transDist::ReadExReq             399206                       # Transaction distribution (Count)
system.membus.transDist::ReadExResp            399206                       # Transaction distribution (Count)
system.membus.transDist::ReadCleanReq             484                       # Transaction distribution (Count)
system.membus.transDist::ReadSharedReq         507634                       # Transaction distribution (Count)
system.membus.pktCount_system.cpu.icache.mem_side_port::system.mem_ctrls.port          997                       # Packet count per connected requestor and responder (Count)
system.membus.pktCount_system.cpu.icache.mem_side_port::total          997                       # Packet count per connected requestor and responder (Count)
system.membus.pktCount_system.cpu.dcache.mem_side_port::system.mem_ctrls.port      2719496                       # Packet count per connected requestor and responder (Count)
system.membus.pktCount_system.cpu.dcache.mem_side_port::total      2719496                       # Packet count per connected requestor and responder (Count)
system.membus.pktCount::total                 2720493                       # Packet count per connected requestor and responder (Count)
system.membus.pktSize_system.cpu.icache.mem_side_port::system.mem_ctrls.port        32832                       # Cumulative packet size per connected requestor and responder (Byte)
system.membus.pktSize_system.cpu.icache.mem_side_port::total        32832                       # Cumulative packet size per connected requestor and responder (Byte)
system.membus.pktSize_system.cpu.dcache.mem_side_port::system.mem_ctrls.port    106906880                       # Cumulative packet size per connected requestor and responder (Byte)
system.membus.pktSize_system.cpu.dcache.mem_side_port::total    106906880                       # Cumulative packet size per connected requestor and responder (Byte)
system.membus.pktSize::total                106939712                       # Cumulative packet size per connected requestor and responder (Byte)
system.membus.snoops                                0                       # Total snoops (Count)
system.membus.snoopTraffic                          0                       # Total snoop traffic (Byte)
system.membus.snoopFanout::samples             907324                       # Request fanout histogram (Count)
system.membus.snoopFanout::mean                     0                       # Request fanout histogram (Count)
system.membus.snoopFanout::stdev                    0                       # Request fanout histogram (Count)
system.membus.snoopFanout::underflows               0      0.00%      0.00% # Request fanout histogram (Count)
system.membus.snoopFanout::0                   907324    100.00%    100.00% # Request fanout histogram (Count)
system.membus.snoopFanout::1                        0      0.00%    100.00% # Request fanout histogram (Count)
system.membus.snoopFanout::2                        0      0.00%    100.00% # Request fanout histogram (Count)
system.membus.snoopFanout::3                        0      0.00%    100.00% # Request fanout histogram (Count)
system.membus.snoopFanout::4                        0      0.00%    100.00% # Request fanout histogram (Count)
system.membus.snoopFanout::overflows                0      0.00%    100.00% # Request fanout histogram (Count)
system.membus.snoopFanout::min_value                0                       # Request fanout histogram (Count)
system.membus.snoopFanout::max_value                0                       # Request fanout histogram (Count)
system.membus.snoopFanout::total               907324                       # Request fanout histogram (Count)
system.membus.power_state.pwrStateResidencyTicks::UNDEFINED  39036295000                       # Cumulative time (in ticks) in various power states (Tick)
system.membus.reqLayer2.occupancy          5350017422                       # Layer occupancy (ticks) (Tick)
system.membus.reqLayer2.utilization               0.1                       # Layer utilization (Ratio)
system.membus.respLayer1.occupancy            2572489                       # Layer occupancy (ticks) (Tick)
system.membus.respLayer1.utilization              0.0                       # Layer utilization (Ratio)
system.membus.respLayer2.occupancy         4724052542                       # Layer occupancy (ticks) (Tick)
system.membus.respLayer2.utilization              0.1                       # Layer utilization (Ratio)
system.membus.snoop_filter.totRequests        1813169                       # Total number of requests made to the snoop filter. (Count)
system.membus.snoop_filter.hitSingleRequests       905845                       # Number of requests hitting in the snoop filter with a single holder of the requested data. (Count)
system.membus.snoop_filter.hitMultiRequests            0                       # Number of requests hitting in the snoop filter with multiple (>1) holders of the requested data. (Count)
system.membus.snoop_filter.totSnoops                0                       # Total number of snoops made to the snoop filter. (Count)
system.membus.snoop_filter.hitSingleSnoops            0                       # Number of snoops hitting in the snoop filter with a single holder of the requested data. (Count)
system.membus.snoop_filter.hitMultiSnoops            0                       # Number of snoops hitting in the snoop filter with multiple (>1) holders of the requested data. (Count)
system.voltage_domain.voltage                       1                       # Voltage in Volts (Volt)
system.workload.inst.arm                            0                       # number of arm instructions executed (Count)
system.workload.inst.quiesce                        0                       # number of quiesce instructions executed (Count)

---------- End Simulation Statistics   ----------
