
---------- Begin Simulation Statistics ----------
simSeconds                                   0.019753                       # Number of seconds simulated (Second)
simTicks                                  19752948000                       # Number of ticks simulated (Tick)
finalTick                                 19752948000                       # Number of ticks from beginning of simulation (restored from checkpoints and never reset) (Tick)
simFreq                                  1000000000000                       # The number of ticks per simulated second ((Tick/Second))
hostSeconds                                     63.27                       # Real time elapsed on the host (Second)
hostTickRate                                312194364                       # The number of ticks simulated per host second (ticks/s) ((Tick/Second))
hostMemory                                     676596                       # Number of bytes of host memory used (Byte)
simInsts                                     11335789                       # Number of instructions simulated (Count)
simOps                                       22597925                       # Number of ops (including micro ops) simulated (Count)
hostInstRate                                   179161                       # Simulator instruction rate (inst/s) ((Count/Second))
hostOpRate                                     357159                       # Simulator op (including micro ops) rate (op/s) ((Count/Second))
system.clk_domain.clock                          1000                       # Clock period in ticks (Tick)
system.cpu.numCycles                         19752949                       # Number of cpu cycles simulated (Cycle)
system.cpu.numWorkItemsStarted                      0                       # Number of work items this cpu started (Count)
system.cpu.numWorkItemsCompleted                    0                       # Number of work items this cpu completed (Count)
system.cpu.instsAdded                        22930889                       # Number of instructions added to the IQ (excludes non-spec) (Count)
system.cpu.nonSpecInstsAdded                        7                       # Number of non-speculative instructions added to the IQ (Count)
system.cpu.instsIssued                       30449519                       # Number of instructions issued (Count)
system.cpu.squashedInstsIssued                  27852                       # Number of squashed instructions issued (Count)
system.cpu.squashedInstsExamined               332965                       # Number of squashed instructions iterated over during squash; mainly for profiling (Count)
system.cpu.squashedOperandsExamined            573450                       # Number of squashed operands that are examined and possibly removed from graph (Count)
system.cpu.squashedNonSpecRemoved                   7                       # Number of squashed non-spec instructions that were removed (Count)
system.cpu.numIssuedDist::samples            19731110                       # Number of insts issued each cycle (Count)
system.cpu.numIssuedDist::mean               1.543224                       # Number of insts issued each cycle (Count)
system.cpu.numIssuedDist::stdev              2.110068                       # Number of insts issued each cycle (Count)
system.cpu.numIssuedDist::underflows                0      0.00%      0.00% # Number of insts issued each cycle (Count)
system.cpu.numIssuedDist::0                  10112376     51.25%     51.25% # Number of insts issued each cycle (Count)
system.cpu.numIssuedDist::1                   3243468     16.44%     67.69% # Number of insts issued each cycle (Count)
system.cpu.numIssuedDist::2                    984222      4.99%     72.68% # Number of insts issued each cycle (Count)
system.cpu.numIssuedDist::3                    995554      5.05%     77.72% # Number of insts issued each cycle (Count)
system.cpu.numIssuedDist::4                   1869164      9.47%     87.20% # Number of insts issued each cycle (Count)
system.cpu.numIssuedDist::5                   1197354      6.07%     93.26% # Number of insts issued each cycle (Count)
system.cpu.numIssuedDist::6                    734878      3.72%     96.99% # Number of insts issued each cycle (Count)
system.cpu.numIssuedDist::7                    374501      1.90%     98.89% # Number of insts issued each cycle (Count)
system.cpu.numIssuedDist::8                    219593      1.11%    100.00% # Number of insts issued each cycle (Count)
system.cpu.numIssuedDist::overflows                 0      0.00%    100.00% # Number of insts issued each cycle (Count)
system.cpu.numIssuedDist::min_value                 0                       # Number of insts issued each cycle (Count)
system.cpu.numIssuedDist::max_value                 8                       # Number of insts issued each cycle (Count)
system.cpu.numIssuedDist::total              19731110                       # Number of insts issued each cycle (Count)
system.cpu.statFuBusy::No_OpClass                   0      0.00%      0.00% # attempts to use FU when none available (Count)
system.cpu.statFuBusy::IntAlu                  100879      3.77%      3.77% # attempts to use FU when none available (Count)
system.cpu.statFuBusy::IntMult                      0      0.00%      3.77% # attempts to use FU when none available (Count)
system.cpu.statFuBusy::IntDiv                       0      0.00%      3.77% # attempts to use FU when none available (Count)
system.cpu.statFuBusy::FloatAdd                     0      0.00%      3.77% # attempts to use FU when none available (Count)
system.cpu.statFuBusy::FloatCmp                     0      0.00%      3.77% # attempts to use FU when none available (Count)
system.cpu.statFuBusy::FloatCvt                     0      0.00%      3.77% # attempts to use FU when none available (Count)
system.cpu.statFuBusy::FloatMult                    0      0.00%      3.77% # attempts to use FU when none available (Count)
system.cpu.statFuBusy::FloatMultAcc                 0      0.00%      3.77% # attempts to use FU when none available (Count)
system.cpu.statFuBusy::FloatDiv                     0      0.00%      3.77% # attempts to use FU when none available (Count)
system.cpu.statFuBusy::FloatMisc                    0      0.00%      3.77% # attempts to use FU when none available (Count)
system.cpu.statFuBusy::FloatSqrt                    0      0.00%      3.77% # attempts to use FU when none available (Count)
system.cpu.statFuBusy::SimdAdd                      0      0.00%      3.77% # attempts to use FU when none available (Count)
system.cpu.statFuBusy::SimdAddAcc                   0      0.00%      3.77% # attempts to use FU when none available (Count)
system.cpu.statFuBusy::SimdAlu                     11      0.00%      3.77% # attempts to use FU when none available (Count)
system.cpu.statFuBusy::SimdCmp                      0      0.00%      3.77% # attempts to use FU when none available (Count)
system.cpu.statFuBusy::SimdCvt                      1      0.00%      3.77% # attempts to use FU when none available (Count)
system.cpu.statFuBusy::SimdMisc                     2      0.00%      3.77% # attempts to use FU when none available (Count)
system.cpu.statFuBusy::SimdMult                     0      0.00%      3.77% # attempts to use FU when none available (Count)
system.cpu.statFuBusy::SimdMultAcc                  0      0.00%      3.77% # attempts to use FU when none available (Count)
system.cpu.statFuBusy::SimdShift                    0      0.00%      3.77% # attempts to use FU when none available (Count)
system.cpu.statFuBusy::SimdShiftAcc                 0      0.00%      3.77% # attempts to use FU when none available (Count)
system.cpu.statFuBusy::SimdDiv                      0      0.00%      3.77% # attempts to use FU when none available (Count)
system.cpu.statFuBusy::SimdSqrt                     0      0.00%      3.77% # attempts to use FU when none available (Count)
system.cpu.statFuBusy::SimdFloatAdd                 0      0.00%      3.77% # attempts to use FU when none available (Count)
system.cpu.statFuBusy::SimdFloatAlu                 0      0.00%      3.77% # attempts to use FU when none available (Count)
system.cpu.statFuBusy::SimdFloatCmp                 0      0.00%      3.77% # attempts to use FU when none available (Count)
system.cpu.statFuBusy::SimdFloatCvt                 0      0.00%      3.77% # attempts to use FU when none available (Count)
system.cpu.statFuBusy::SimdFloatDiv                 0      0.00%      3.77% # attempts to use FU when none available (Count)
system.cpu.statFuBusy::SimdFloatMisc                0      0.00%      3.77% # attempts to use FU when none available (Count)
system.cpu.statFuBusy::SimdFloatMult             2140      0.08%      3.85% # attempts to use FU when none available (Count)
system.cpu.statFuBusy::SimdFloatMultAcc             0      0.00%      3.85% # attempts to use FU when none available (Count)
system.cpu.statFuBusy::SimdFloatSqrt                0      0.00%      3.85% # attempts to use FU when none available (Count)
system.cpu.statFuBusy::SimdReduceAdd                0      0.00%      3.85% # attempts to use FU when none available (Count)
system.cpu.statFuBusy::SimdReduceAlu                0      0.00%      3.85% # attempts to use FU when none available (Count)
system.cpu.statFuBusy::SimdReduceCmp                0      0.00%      3.85% # attempts to use FU when none available (Count)
system.cpu.statFuBusy::SimdFloatReduceAdd            0      0.00%      3.85% # attempts to use FU when none available (Count)
system.cpu.statFuBusy::SimdFloatReduceCmp            0      0.00%      3.85% # attempts to use FU when none available (Count)
system.cpu.statFuBusy::SimdAes                      0      0.00%      3.85% # attempts to use FU when none available (Count)
system.cpu.statFuBusy::SimdAesMix                   0      0.00%      3.85% # attempts to use FU when none available (Count)
system.cpu.statFuBusy::SimdSha1Hash                 0      0.00%      3.85% # attempts to use FU when none available (Count)
system.cpu.statFuBusy::SimdSha1Hash2                0      0.00%      3.85% # attempts to use FU when none available (Count)
system.cpu.statFuBusy::SimdSha256Hash               0      0.00%      3.85% # attempts to use FU when none available (Count)
system.cpu.statFuBusy::SimdSha256Hash2              0      0.00%      3.85% # attempts to use FU when none available (Count)
system.cpu.statFuBusy::SimdShaSigma2                0      0.00%      3.85% # attempts to use FU when none available (Count)
system.cpu.statFuBusy::SimdShaSigma3                0      0.00%      3.85% # attempts to use FU when none available (Count)
system.cpu.statFuBusy::SimdPredAlu                  0      0.00%      3.85% # attempts to use FU when none available (Count)
system.cpu.statFuBusy::MemRead                1050743     39.27%     43.12% # attempts to use FU when none available (Count)
system.cpu.statFuBusy::MemWrite                    12      0.00%     43.12% # attempts to use FU when none available (Count)
system.cpu.statFuBusy::FloatMemRead           1521702     56.88%    100.00% # attempts to use FU when none available (Count)
system.cpu.statFuBusy::FloatMemWrite               12      0.00%    100.00% # attempts to use FU when none available (Count)
system.cpu.statFuBusy::IprAccess                    0      0.00%    100.00% # attempts to use FU when none available (Count)
system.cpu.statFuBusy::InstPrefetch                 0      0.00%    100.00% # attempts to use FU when none available (Count)
system.cpu.statIssuedInstType_0::No_OpClass          719      0.00%      0.00% # Number of instructions issued per FU type, per thread (Count)
system.cpu.statIssuedInstType_0::IntAlu      11542259     37.91%     37.91% # Number of instructions issued per FU type, per thread (Count)
system.cpu.statIssuedInstType_0::IntMult            5      0.00%     37.91% # Number of instructions issued per FU type, per thread (Count)
system.cpu.statIssuedInstType_0::IntDiv            21      0.00%     37.91% # Number of instructions issued per FU type, per thread (Count)
system.cpu.statIssuedInstType_0::FloatAdd      3205969     10.53%     48.44% # Number of instructions issued per FU type, per thread (Count)
system.cpu.statIssuedInstType_0::FloatCmp            0      0.00%     48.44% # Number of instructions issued per FU type, per thread (Count)
system.cpu.statIssuedInstType_0::FloatCvt            0      0.00%     48.44% # Number of instructions issued per FU type, per thread (Count)
system.cpu.statIssuedInstType_0::FloatMult            0      0.00%     48.44% # Number of instructions issued per FU type, per thread (Count)
system.cpu.statIssuedInstType_0::FloatMultAcc            0      0.00%     48.44% # Number of instructions issued per FU type, per thread (Count)
system.cpu.statIssuedInstType_0::FloatDiv            0      0.00%     48.44% # Number of instructions issued per FU type, per thread (Count)
system.cpu.statIssuedInstType_0::FloatMisc            0      0.00%     48.44% # Number of instructions issued per FU type, per thread (Count)
system.cpu.statIssuedInstType_0::FloatSqrt            0      0.00%     48.44% # Number of instructions issued per FU type, per thread (Count)
system.cpu.statIssuedInstType_0::SimdAdd            0      0.00%     48.44% # Number of instructions issued per FU type, per thread (Count)
system.cpu.statIssuedInstType_0::SimdAddAcc            0      0.00%     48.44% # Number of instructions issued per FU type, per thread (Count)
system.cpu.statIssuedInstType_0::SimdAlu          202      0.00%     48.44% # Number of instructions issued per FU type, per thread (Count)
system.cpu.statIssuedInstType_0::SimdCmp            0      0.00%     48.44% # Number of instructions issued per FU type, per thread (Count)
system.cpu.statIssuedInstType_0::SimdCvt           48      0.00%     48.44% # Number of instructions issued per FU type, per thread (Count)
system.cpu.statIssuedInstType_0::SimdMisc          218      0.00%     48.44% # Number of instructions issued per FU type, per thread (Count)
system.cpu.statIssuedInstType_0::SimdMult            0      0.00%     48.44% # Number of instructions issued per FU type, per thread (Count)
system.cpu.statIssuedInstType_0::SimdMultAcc            0      0.00%     48.44% # Number of instructions issued per FU type, per thread (Count)
system.cpu.statIssuedInstType_0::SimdShift            0      0.00%     48.44% # Number of instructions issued per FU type, per thread (Count)
system.cpu.statIssuedInstType_0::SimdShiftAcc            0      0.00%     48.44% # Number of instructions issued per FU type, per thread (Count)
system.cpu.statIssuedInstType_0::SimdDiv            0      0.00%     48.44% # Number of instructions issued per FU type, per thread (Count)
system.cpu.statIssuedInstType_0::SimdSqrt            0      0.00%     48.44% # Number of instructions issued per FU type, per thread (Count)
system.cpu.statIssuedInstType_0::SimdFloatAdd      1600815      5.26%     53.70% # Number of instructions issued per FU type, per thread (Count)
system.cpu.statIssuedInstType_0::SimdFloatAlu            0      0.00%     53.70% # Number of instructions issued per FU type, per thread (Count)
system.cpu.statIssuedInstType_0::SimdFloatCmp            0      0.00%     53.70% # Number of instructions issued per FU type, per thread (Count)
system.cpu.statIssuedInstType_0::SimdFloatCvt            0      0.00%     53.70% # Number of instructions issued per FU type, per thread (Count)
system.cpu.statIssuedInstType_0::SimdFloatDiv            0      0.00%     53.70% # Number of instructions issued per FU type, per thread (Count)
system.cpu.statIssuedInstType_0::SimdFloatMisc            0      0.00%     53.70% # Number of instructions issued per FU type, per thread (Count)
system.cpu.statIssuedInstType_0::SimdFloatMult      1576252      5.18%     58.87% # Number of instructions issued per FU type, per thread (Count)
system.cpu.statIssuedInstType_0::SimdFloatMultAcc            0      0.00%     58.87% # Number of instructions issued per FU type, per thread (Count)
system.cpu.statIssuedInstType_0::SimdFloatSqrt            0      0.00%     58.87% # Number of instructions issued per FU type, per thread (Count)
system.cpu.statIssuedInstType_0::SimdReduceAdd            0      0.00%     58.87% # Number of instructions issued per FU type, per thread (Count)
system.cpu.statIssuedInstType_0::SimdReduceAlu            0      0.00%     58.87% # Number of instructions issued per FU type, per thread (Count)
system.cpu.statIssuedInstType_0::SimdReduceCmp            0      0.00%     58.87% # Number of instructions issued per FU type, per thread (Count)
system.cpu.statIssuedInstType_0::SimdFloatReduceAdd            0      0.00%     58.87% # Number of instructions issued per FU type, per thread (Count)
system.cpu.statIssuedInstType_0::SimdFloatReduceCmp            0      0.00%     58.87% # Number of instructions issued per FU type, per thread (Count)
system.cpu.statIssuedInstType_0::SimdAes            0      0.00%     58.87% # Number of instructions issued per FU type, per thread (Count)
system.cpu.statIssuedInstType_0::SimdAesMix            0      0.00%     58.87% # Number of instructions issued per FU type, per thread (Count)
system.cpu.statIssuedInstType_0::SimdSha1Hash            0      0.00%     58.87% # Number of instructions issued per FU type, per thread (Count)
system.cpu.statIssuedInstType_0::SimdSha1Hash2            0      0.00%     58.87% # Number of instructions issued per FU type, per thread (Count)
system.cpu.statIssuedInstType_0::SimdSha256Hash            0      0.00%     58.87% # Number of instructions issued per FU type, per thread (Count)
system.cpu.statIssuedInstType_0::SimdSha256Hash2            0      0.00%     58.87% # Number of instructions issued per FU type, per thread (Count)
system.cpu.statIssuedInstType_0::SimdShaSigma2            0      0.00%     58.87% # Number of instructions issued per FU type, per thread (Count)
system.cpu.statIssuedInstType_0::SimdShaSigma3            0      0.00%     58.87% # Number of instructions issued per FU type, per thread (Count)
system.cpu.statIssuedInstType_0::SimdPredAlu            0      0.00%     58.87% # Number of instructions issued per FU type, per thread (Count)
system.cpu.statIssuedInstType_0::MemRead      4109705     13.50%     72.37% # Number of instructions issued per FU type, per thread (Count)
system.cpu.statIssuedInstType_0::MemWrite         1801      0.01%     72.38% # Number of instructions issued per FU type, per thread (Count)
system.cpu.statIssuedInstType_0::FloatMemRead      8386405     27.54%     99.92% # Number of instructions issued per FU type, per thread (Count)
system.cpu.statIssuedInstType_0::FloatMemWrite        25100      0.08%    100.00% # Number of instructions issued per FU type, per thread (Count)
system.cpu.statIssuedInstType_0::IprAccess            0      0.00%    100.00% # Number of instructions issued per FU type, per thread (Count)
system.cpu.statIssuedInstType_0::InstPrefetch            0      0.00%    100.00% # Number of instructions issued per FU type, per thread (Count)
system.cpu.statIssuedInstType_0::total       30449519                       # Number of instructions issued per FU type, per thread (Count)
system.cpu.issueRate                         1.541518                       # Inst issue rate ((Count/Cycle))
system.cpu.fuBusy                             2675502                       # FU busy when requested (Count)
system.cpu.fuBusyRate                        0.087867                       # FU busy rate (busy events/executed inst) ((Count/Count))
system.cpu.intInstQueueReads                 52108060                       # Number of integer instruction queue reads (Count)
system.cpu.intInstQueueWrites                13394252                       # Number of integer instruction queue writes (Count)
system.cpu.intInstQueueWakeupAccesses        13098061                       # Number of integer instruction queue wakeup accesses (Count)
system.cpu.fpInstQueueReads                  31225442                       # Number of floating instruction queue reads (Count)
system.cpu.fpInstQueueWrites                  9869623                       # Number of floating instruction queue writes (Count)
system.cpu.fpInstQueueWakeupAccesses          9622889                       # Number of floating instruction queue wakeup accesses (Count)
system.cpu.vecInstQueueReads                        0                       # Number of vector instruction queue reads (Count)
system.cpu.vecInstQueueWrites                       0                       # Number of vector instruction queue writes (Count)
system.cpu.vecInstQueueWakeupAccesses               0                       # Number of vector instruction queue wakeup accesses (Count)
system.cpu.intAluAccesses                    16755976                       # Number of integer alu accesses (Count)
system.cpu.fpAluAccesses                     16368326                       # Number of floating point alu accesses (Count)
system.cpu.vecAluAccesses                           0                       # Number of vector alu accesses (Count)
system.cpu.numInsts                          30400263                       # Number of executed instructions (Count)
system.cpu.numLoadInsts                      12485086                       # Number of load instructions executed (Count)
system.cpu.numSquashedInsts                     49256                       # Number of squashed instructions skipped in execute (Count)
system.cpu.numSwp                                   0                       # Number of swp insts executed (Count)
system.cpu.numNop                                   0                       # Number of nop insts executed (Count)
system.cpu.numRefs                           12511899                       # Number of memory reference insts executed (Count)
system.cpu.numBranches                        1631828                       # Number of branches executed (Count)
system.cpu.numStoreInsts                        26813                       # Number of stores executed (Count)
system.cpu.numRate                           1.539024                       # Inst execution rate ((Count/Cycle))
system.cpu.timesIdled                             298                       # Number of times that the entire CPU went into an idle state and unscheduled itself (Count)
system.cpu.idleCycles                           21839                       # Total number of cycles that the CPU has spent unscheduled due to idling (Cycle)
system.cpu.committedInsts                    11335789                       # Number of Instructions Simulated (Count)
system.cpu.committedOps                      22597925                       # Number of Ops (including micro ops) Simulated (Count)
system.cpu.cpi                               1.742530                       # CPI: Cycles Per Instruction ((Cycle/Count))
system.cpu.totalCpi                          1.742530                       # CPI: Total CPI of All Threads ((Cycle/Count))
system.cpu.ipc                               0.573878                       # IPC: Instructions Per Cycle ((Count/Cycle))
system.cpu.totalIpc                          0.573878                       # IPC: Total IPC of All Threads ((Count/Cycle))
system.cpu.intRegfileReads                   36275900                       # Number of integer regfile reads (Count)
system.cpu.intRegfileWrites                   9804361                       # Number of integer regfile writes (Count)
system.cpu.fpRegfileReads                     9655974                       # Number of floating regfile reads (Count)
system.cpu.fpRegfileWrites                    9598409                       # Number of floating regfile writes (Count)
system.cpu.ccRegfileReads                     8157906                       # number of cc regfile reads (Count)
system.cpu.ccRegfileWrites                    6552618                       # number of cc regfile writes (Count)
system.cpu.miscRegfileReads                  15786668                       # number of misc regfile reads (Count)
system.cpu.MemDepUnit__0.insertedLoads        4881773                       # Number of loads inserted to the mem dependence unit. (Count)
system.cpu.MemDepUnit__0.insertedStores         27492                       # Number of stores inserted to the mem dependence unit. (Count)
system.cpu.MemDepUnit__0.conflictingLoads          919                       # Number of conflicting loads. (Count)
system.cpu.MemDepUnit__0.conflictingStores          873                       # Number of conflicting stores. (Count)
system.cpu.MemDepUnit__1.insertedLoads              0                       # Number of loads inserted to the mem dependence unit. (Count)
system.cpu.MemDepUnit__1.insertedStores             0                       # Number of stores inserted to the mem dependence unit. (Count)
system.cpu.MemDepUnit__1.conflictingLoads            0                       # Number of conflicting loads. (Count)
system.cpu.MemDepUnit__1.conflictingStores            0                       # Number of conflicting stores. (Count)
system.cpu.MemDepUnit__2.insertedLoads              0                       # Number of loads inserted to the mem dependence unit. (Count)
system.cpu.MemDepUnit__2.insertedStores             0                       # Number of stores inserted to the mem dependence unit. (Count)
system.cpu.MemDepUnit__2.conflictingLoads            0                       # Number of conflicting loads. (Count)
system.cpu.MemDepUnit__2.conflictingStores            0                       # Number of conflicting stores. (Count)
system.cpu.MemDepUnit__3.insertedLoads              0                       # Number of loads inserted to the mem dependence unit. (Count)
system.cpu.MemDepUnit__3.insertedStores             0                       # Number of stores inserted to the mem dependence unit. (Count)
system.cpu.MemDepUnit__3.conflictingLoads            0                       # Number of conflicting loads. (Count)
system.cpu.MemDepUnit__3.conflictingStores            0                       # Number of conflicting stores. (Count)
system.cpu.branchPred.lookups                 1692309                       # Number of BP lookups (Count)
system.cpu.branchPred.condPredicted           1691008                       # Number of conditional branches predicted (Count)
system.cpu.branchPred.condIncorrect             25469                       # Number of conditional branches incorrect (Count)
system.cpu.branchPred.BTBLookups              1664724                       # Number of BTB lookups (Count)
system.cpu.branchPred.BTBUpdates                 1328                       # Number of BTB updates (Count)
system.cpu.branchPred.BTBHits                 1663960                       # Number of BTB hits (Count)
system.cpu.branchPred.BTBHitRatio            0.999541                       # BTB Hit Ratio (Ratio)
system.cpu.branchPred.RASUsed                     288                       # Number of times the RAS was used to get a target. (Count)
system.cpu.branchPred.RASIncorrect                  0                       # Number of incorrect RAS predictions. (Count)
system.cpu.branchPred.indirectLookups             350                       # Number of indirect predictor lookups. (Count)
system.cpu.branchPred.indirectHits                 14                       # Number of indirect target hits. (Count)
system.cpu.branchPred.indirectMisses              336                       # Number of indirect misses. (Count)
system.cpu.branchPred.indirectMispredicted          108                       # Number of mispredicted indirect branches. (Count)
system.cpu.commit.commitSquashedInsts          333991                       # The number of squashed insts skipped by commit (Count)
system.cpu.commit.branchMispredicts             25379                       # The number of times a branch was mispredicted (Count)
system.cpu.commit.numCommittedDist::samples     19674666                       # Number of insts commited each cycle (Count)
system.cpu.commit.numCommittedDist::mean     1.148580                       # Number of insts commited each cycle (Count)
system.cpu.commit.numCommittedDist::stdev     2.464818                       # Number of insts commited each cycle (Count)
system.cpu.commit.numCommittedDist::underflows            0      0.00%      0.00% # Number of insts commited each cycle (Count)
system.cpu.commit.numCommittedDist::0        15018802     76.34%     76.34% # Number of insts commited each cycle (Count)
system.cpu.commit.numCommittedDist::1          523281      2.66%     79.00% # Number of insts commited each cycle (Count)
system.cpu.commit.numCommittedDist::2          498137      2.53%     81.53% # Number of insts commited each cycle (Count)
system.cpu.commit.numCommittedDist::3         1460609      7.42%     88.95% # Number of insts commited each cycle (Count)
system.cpu.commit.numCommittedDist::4           13175      0.07%     89.02% # Number of insts commited each cycle (Count)
system.cpu.commit.numCommittedDist::5          142052      0.72%     89.74% # Number of insts commited each cycle (Count)
system.cpu.commit.numCommittedDist::6           50268      0.26%     90.00% # Number of insts commited each cycle (Count)
system.cpu.commit.numCommittedDist::7          114761      0.58%     90.58% # Number of insts commited each cycle (Count)
system.cpu.commit.numCommittedDist::8         1853581      9.42%    100.00% # Number of insts commited each cycle (Count)
system.cpu.commit.numCommittedDist::overflows            0      0.00%    100.00% # Number of insts commited each cycle (Count)
system.cpu.commit.numCommittedDist::min_value            0                       # Number of insts commited each cycle (Count)
system.cpu.commit.numCommittedDist::max_value            8                       # Number of insts commited each cycle (Count)
system.cpu.commit.numCommittedDist::total     19674666                       # Number of insts commited each cycle (Count)
system.cpu.commit.instsCommitted             11335789                       # Number of instructions committed (Count)
system.cpu.commit.opsCommitted               22597925                       # Number of ops (including micro ops) committed (Count)
system.cpu.commit.memRefs                     4829936                       # Number of memory references committed (Count)
system.cpu.commit.loads                       4803723                       # Number of loads committed (Count)
system.cpu.commit.amos                              0                       # Number of atomic instructions committed (Count)
system.cpu.commit.membars                           0                       # Number of memory barriers committed (Count)
system.cpu.commit.branches                    1627008                       # Number of branches committed (Count)
system.cpu.commit.vectorInstructions                0                       # Number of committed Vector instructions. (Count)
system.cpu.commit.floating                    9580973                       # Number of committed floating point instructions. (Count)
system.cpu.commit.integer                    16194835                       # Number of committed integer instructions. (Count)
system.cpu.commit.functionCalls                   146                       # Number of function calls committed. (Count)
system.cpu.commit.committedInstType_0::No_OpClass          186      0.00%      0.00% # Class of committed instruction (Count)
system.cpu.commit.committedInstType_0::IntAlu     11438065     50.62%     50.62% # Class of committed instruction (Count)
system.cpu.commit.committedInstType_0::IntMult            5      0.00%     50.62% # Class of committed instruction (Count)
system.cpu.commit.committedInstType_0::IntDiv           21      0.00%     50.62% # Class of committed instruction (Count)
system.cpu.commit.committedInstType_0::FloatAdd      3152457     13.95%     64.57% # Class of committed instruction (Count)
system.cpu.commit.committedInstType_0::FloatCmp            0      0.00%     64.57% # Class of committed instruction (Count)
system.cpu.commit.committedInstType_0::FloatCvt            0      0.00%     64.57% # Class of committed instruction (Count)
system.cpu.commit.committedInstType_0::FloatMult            0      0.00%     64.57% # Class of committed instruction (Count)
system.cpu.commit.committedInstType_0::FloatMultAcc            0      0.00%     64.57% # Class of committed instruction (Count)
system.cpu.commit.committedInstType_0::FloatDiv            0      0.00%     64.57% # Class of committed instruction (Count)
system.cpu.commit.committedInstType_0::FloatMisc            0      0.00%     64.57% # Class of committed instruction (Count)
system.cpu.commit.committedInstType_0::FloatSqrt            0      0.00%     64.57% # Class of committed instruction (Count)
system.cpu.commit.committedInstType_0::SimdAdd            0      0.00%     64.57% # Class of committed instruction (Count)
system.cpu.commit.committedInstType_0::SimdAddAcc            0      0.00%     64.57% # Class of committed instruction (Count)
system.cpu.commit.committedInstType_0::SimdAlu           96      0.00%     64.57% # Class of committed instruction (Count)
system.cpu.commit.committedInstType_0::SimdCmp            0      0.00%     64.57% # Class of committed instruction (Count)
system.cpu.commit.committedInstType_0::SimdCvt           46      0.00%     64.57% # Class of committed instruction (Count)
system.cpu.commit.committedInstType_0::SimdMisc          215      0.00%     64.57% # Class of committed instruction (Count)
system.cpu.commit.committedInstType_0::SimdMult            0      0.00%     64.57% # Class of committed instruction (Count)
system.cpu.commit.committedInstType_0::SimdMultAcc            0      0.00%     64.57% # Class of committed instruction (Count)
system.cpu.commit.committedInstType_0::SimdShift            0      0.00%     64.57% # Class of committed instruction (Count)
system.cpu.commit.committedInstType_0::SimdShiftAcc            0      0.00%     64.57% # Class of committed instruction (Count)
system.cpu.commit.committedInstType_0::SimdDiv            0      0.00%     64.57% # Class of committed instruction (Count)
system.cpu.commit.committedInstType_0::SimdSqrt            0      0.00%     64.57% # Class of committed instruction (Count)
system.cpu.commit.committedInstType_0::SimdFloatAdd      1600737      7.08%     71.65% # Class of committed instruction (Count)
system.cpu.commit.committedInstType_0::SimdFloatAlu            0      0.00%     71.65% # Class of committed instruction (Count)
system.cpu.commit.committedInstType_0::SimdFloatCmp            0      0.00%     71.65% # Class of committed instruction (Count)
system.cpu.commit.committedInstType_0::SimdFloatCvt            0      0.00%     71.65% # Class of committed instruction (Count)
system.cpu.commit.committedInstType_0::SimdFloatDiv            0      0.00%     71.65% # Class of committed instruction (Count)
system.cpu.commit.committedInstType_0::SimdFloatMisc            0      0.00%     71.65% # Class of committed instruction (Count)
system.cpu.commit.committedInstType_0::SimdFloatMult      1576161      6.97%     78.63% # Class of committed instruction (Count)
system.cpu.commit.committedInstType_0::SimdFloatMultAcc            0      0.00%     78.63% # Class of committed instruction (Count)
system.cpu.commit.committedInstType_0::SimdFloatSqrt            0      0.00%     78.63% # Class of committed instruction (Count)
system.cpu.commit.committedInstType_0::SimdReduceAdd            0      0.00%     78.63% # Class of committed instruction (Count)
system.cpu.commit.committedInstType_0::SimdReduceAlu            0      0.00%     78.63% # Class of committed instruction (Count)
system.cpu.commit.committedInstType_0::SimdReduceCmp            0      0.00%     78.63% # Class of committed instruction (Count)
system.cpu.commit.committedInstType_0::SimdFloatReduceAdd            0      0.00%     78.63% # Class of committed instruction (Count)
system.cpu.commit.committedInstType_0::SimdFloatReduceCmp            0      0.00%     78.63% # Class of committed instruction (Count)
system.cpu.commit.committedInstType_0::SimdAes            0      0.00%     78.63% # Class of committed instruction (Count)
system.cpu.commit.committedInstType_0::SimdAesMix            0      0.00%     78.63% # Class of committed instruction (Count)
system.cpu.commit.committedInstType_0::SimdSha1Hash            0      0.00%     78.63% # Class of committed instruction (Count)
system.cpu.commit.committedInstType_0::SimdSha1Hash2            0      0.00%     78.63% # Class of committed instruction (Count)
system.cpu.commit.committedInstType_0::SimdSha256Hash            0      0.00%     78.63% # Class of committed instruction (Count)
system.cpu.commit.committedInstType_0::SimdSha256Hash2            0      0.00%     78.63% # Class of committed instruction (Count)
system.cpu.commit.committedInstType_0::SimdShaSigma2            0      0.00%     78.63% # Class of committed instruction (Count)
system.cpu.commit.committedInstType_0::SimdShaSigma3            0      0.00%     78.63% # Class of committed instruction (Count)
system.cpu.commit.committedInstType_0::SimdPredAlu            0      0.00%     78.63% # Class of committed instruction (Count)
system.cpu.commit.committedInstType_0::MemRead      1626783      7.20%     85.83% # Class of committed instruction (Count)
system.cpu.commit.committedInstType_0::MemWrite         1183      0.01%     85.83% # Class of committed instruction (Count)
system.cpu.commit.committedInstType_0::FloatMemRead      3176940     14.06%     99.89% # Class of committed instruction (Count)
system.cpu.commit.committedInstType_0::FloatMemWrite        25030      0.11%    100.00% # Class of committed instruction (Count)
system.cpu.commit.committedInstType_0::IprAccess            0      0.00%    100.00% # Class of committed instruction (Count)
system.cpu.commit.committedInstType_0::InstPrefetch            0      0.00%    100.00% # Class of committed instruction (Count)
system.cpu.commit.committedInstType_0::total     22597925                       # Class of committed instruction (Count)
system.cpu.commit.commitEligibleSamples       1853581                       # number cycles where commit BW limit reached (Cycle)
system.cpu.dcache.demandHits::cpu.data        1568818                       # number of demand (read+write) hits (Count)
system.cpu.dcache.demandHits::total           1568818                       # number of demand (read+write) hits (Count)
system.cpu.dcache.overallHits::cpu.data       1568818                       # number of overall hits (Count)
system.cpu.dcache.overallHits::total          1568818                       # number of overall hits (Count)
system.cpu.dcache.demandMisses::cpu.data      3372460                       # number of demand (read+write) misses (Count)
system.cpu.dcache.demandMisses::total         3372460                       # number of demand (read+write) misses (Count)
system.cpu.dcache.overallMisses::cpu.data      3372460                       # number of overall misses (Count)
system.cpu.dcache.overallMisses::total        3372460                       # number of overall misses (Count)
system.cpu.dcache.demandMissLatency::cpu.data 217226034000                       # number of demand (read+write) miss ticks (Tick)
system.cpu.dcache.demandMissLatency::total 217226034000                       # number of demand (read+write) miss ticks (Tick)
system.cpu.dcache.overallMissLatency::cpu.data 217226034000                       # number of overall miss ticks (Tick)
system.cpu.dcache.overallMissLatency::total 217226034000                       # number of overall miss ticks (Tick)
system.cpu.dcache.demandAccesses::cpu.data      4941278                       # number of demand (read+write) accesses (Count)
system.cpu.dcache.demandAccesses::total       4941278                       # number of demand (read+write) accesses (Count)
system.cpu.dcache.overallAccesses::cpu.data      4941278                       # number of overall (read+write) accesses (Count)
system.cpu.dcache.overallAccesses::total      4941278                       # number of overall (read+write) accesses (Count)
system.cpu.dcache.demandMissRate::cpu.data     0.682508                       # miss rate for demand accesses (Ratio)
system.cpu.dcache.demandMissRate::total      0.682508                       # miss rate for demand accesses (Ratio)
system.cpu.dcache.overallMissRate::cpu.data     0.682508                       # miss rate for overall accesses (Ratio)
system.cpu.dcache.overallMissRate::total     0.682508                       # miss rate for overall accesses (Ratio)
system.cpu.dcache.demandAvgMissLatency::cpu.data 64411.745136                       # average overall miss latency in ticks ((Tick/Count))
system.cpu.dcache.demandAvgMissLatency::total 64411.745136                       # average overall miss latency in ticks ((Tick/Count))
system.cpu.dcache.overallAvgMissLatency::cpu.data 64411.745136                       # average overall miss latency ((Tick/Count))
system.cpu.dcache.overallAvgMissLatency::total 64411.745136                       # average overall miss latency ((Tick/Count))
system.cpu.dcache.blockedCycles::no_mshrs      7287759                       # number of cycles access was blocked (Cycle)
system.cpu.dcache.blockedCycles::no_targets            0                       # number of cycles access was blocked (Cycle)
system.cpu.dcache.blockedCauses::no_mshrs      1029944                       # number of times access was blocked (Count)
system.cpu.dcache.blockedCauses::no_targets            0                       # number of times access was blocked (Count)
system.cpu.dcache.avgBlocked::no_mshrs       7.075879                       # average number of cycles each access was blocked ((Cycle/Count))
system.cpu.dcache.avgBlocked::no_targets          nan                       # average number of cycles each access was blocked ((Cycle/Count))
system.cpu.dcache.writebacks::writebacks         1849                       # number of writebacks (Count)
system.cpu.dcache.writebacks::total              1849                       # number of writebacks (Count)
system.cpu.dcache.demandMshrHits::cpu.data      1938547                       # number of demand (read+write) MSHR hits (Count)
system.cpu.dcache.demandMshrHits::total       1938547                       # number of demand (read+write) MSHR hits (Count)
system.cpu.dcache.overallMshrHits::cpu.data      1938547                       # number of overall MSHR hits (Count)
system.cpu.dcache.overallMshrHits::total      1938547                       # number of overall MSHR hits (Count)
system.cpu.dcache.demandMshrMisses::cpu.data      1433913                       # number of demand (read+write) MSHR misses (Count)
system.cpu.dcache.demandMshrMisses::total      1433913                       # number of demand (read+write) MSHR misses (Count)
system.cpu.dcache.overallMshrMisses::cpu.data      1433913                       # number of overall MSHR misses (Count)
system.cpu.dcache.overallMshrMisses::total      1433913                       # number of overall MSHR misses (Count)
system.cpu.dcache.demandMshrMissLatency::cpu.data  54133116000                       # number of demand (read+write) MSHR miss ticks (Tick)
system.cpu.dcache.demandMshrMissLatency::total  54133116000                       # number of demand (read+write) MSHR miss ticks (Tick)
system.cpu.dcache.overallMshrMissLatency::cpu.data  54133116000                       # number of overall MSHR miss ticks (Tick)
system.cpu.dcache.overallMshrMissLatency::total  54133116000                       # number of overall MSHR miss ticks (Tick)
system.cpu.dcache.demandMshrMissRate::cpu.data     0.290191                       # mshr miss ratio for demand accesses (Ratio)
system.cpu.dcache.demandMshrMissRate::total     0.290191                       # mshr miss ratio for demand accesses (Ratio)
system.cpu.dcache.overallMshrMissRate::cpu.data     0.290191                       # mshr miss ratio for overall accesses (Ratio)
system.cpu.dcache.overallMshrMissRate::total     0.290191                       # mshr miss ratio for overall accesses (Ratio)
system.cpu.dcache.demandAvgMshrMissLatency::cpu.data 37752.022612                       # average overall mshr miss latency ((Tick/Count))
system.cpu.dcache.demandAvgMshrMissLatency::total 37752.022612                       # average overall mshr miss latency ((Tick/Count))
system.cpu.dcache.overallAvgMshrMissLatency::cpu.data 37752.022612                       # average overall mshr miss latency ((Tick/Count))
system.cpu.dcache.overallAvgMshrMissLatency::total 37752.022612                       # average overall mshr miss latency ((Tick/Count))
system.cpu.dcache.replacements                1432889                       # number of replacements (Count)
system.cpu.dcache.ReadReq.hits::cpu.data      1542723                       # number of ReadReq hits (Count)
system.cpu.dcache.ReadReq.hits::total         1542723                       # number of ReadReq hits (Count)
system.cpu.dcache.ReadReq.misses::cpu.data      3372341                       # number of ReadReq misses (Count)
system.cpu.dcache.ReadReq.misses::total       3372341                       # number of ReadReq misses (Count)
system.cpu.dcache.ReadReq.missLatency::cpu.data 217214364000                       # number of ReadReq miss ticks (Tick)
system.cpu.dcache.ReadReq.missLatency::total 217214364000                       # number of ReadReq miss ticks (Tick)
system.cpu.dcache.ReadReq.accesses::cpu.data      4915064                       # number of ReadReq accesses(hits+misses) (Count)
system.cpu.dcache.ReadReq.accesses::total      4915064                       # number of ReadReq accesses(hits+misses) (Count)
system.cpu.dcache.ReadReq.missRate::cpu.data     0.686124                       # miss rate for ReadReq accesses (Ratio)
system.cpu.dcache.ReadReq.missRate::total     0.686124                       # miss rate for ReadReq accesses (Ratio)
system.cpu.dcache.ReadReq.avgMissLatency::cpu.data 64410.557533                       # average ReadReq miss latency ((Tick/Count))
system.cpu.dcache.ReadReq.avgMissLatency::total 64410.557533                       # average ReadReq miss latency ((Tick/Count))
system.cpu.dcache.ReadReq.mshrHits::cpu.data      1938546                       # number of ReadReq MSHR hits (Count)
system.cpu.dcache.ReadReq.mshrHits::total      1938546                       # number of ReadReq MSHR hits (Count)
system.cpu.dcache.ReadReq.mshrMisses::cpu.data      1433795                       # number of ReadReq MSHR misses (Count)
system.cpu.dcache.ReadReq.mshrMisses::total      1433795                       # number of ReadReq MSHR misses (Count)
system.cpu.dcache.ReadReq.mshrMissLatency::cpu.data  54121770000                       # number of ReadReq MSHR miss ticks (Tick)
system.cpu.dcache.ReadReq.mshrMissLatency::total  54121770000                       # number of ReadReq MSHR miss ticks (Tick)
system.cpu.dcache.ReadReq.mshrMissRate::cpu.data     0.291714                       # mshr miss rate for ReadReq accesses (Ratio)
system.cpu.dcache.ReadReq.mshrMissRate::total     0.291714                       # mshr miss rate for ReadReq accesses (Ratio)
system.cpu.dcache.ReadReq.avgMshrMissLatency::cpu.data 37747.216304                       # average ReadReq mshr miss latency ((Tick/Count))
system.cpu.dcache.ReadReq.avgMshrMissLatency::total 37747.216304                       # average ReadReq mshr miss latency ((Tick/Count))
system.cpu.dcache.WriteReq.hits::cpu.data        26095                       # number of WriteReq hits (Count)
system.cpu.dcache.WriteReq.hits::total          26095                       # number of WriteReq hits (Count)
system.cpu.dcache.WriteReq.misses::cpu.data          119                       # number of WriteReq misses (Count)
system.cpu.dcache.WriteReq.misses::total          119                       # number of WriteReq misses (Count)
system.cpu.dcache.WriteReq.missLatency::cpu.data     11670000                       # number of WriteReq miss ticks (Tick)
system.cpu.dcache.WriteReq.missLatency::total     11670000                       # number of WriteReq miss ticks (Tick)
system.cpu.dcache.WriteReq.accesses::cpu.data        26214                       # number of WriteReq accesses(hits+misses) (Count)
system.cpu.dcache.WriteReq.accesses::total        26214                       # number of WriteReq accesses(hits+misses) (Count)
system.cpu.dcache.WriteReq.missRate::cpu.data     0.004540                       # miss rate for WriteReq accesses (Ratio)
system.cpu.dcache.WriteReq.missRate::total     0.004540                       # miss rate for WriteReq accesses (Ratio)
system.cpu.dcache.WriteReq.avgMissLatency::cpu.data 98067.226891                       # average WriteReq miss latency ((Tick/Count))
system.cpu.dcache.WriteReq.avgMissLatency::total 98067.226891                       # average WriteReq miss latency ((Tick/Count))
system.cpu.dcache.WriteReq.mshrHits::cpu.data            1                       # number of WriteReq MSHR hits (Count)
system.cpu.dcache.WriteReq.mshrHits::total            1                       # number of WriteReq MSHR hits (Count)
system.cpu.dcache.WriteReq.mshrMisses::cpu.data          118                       # number of WriteReq MSHR misses (Count)
system.cpu.dcache.WriteReq.mshrMisses::total          118                       # number of WriteReq MSHR misses (Count)
system.cpu.dcache.WriteReq.mshrMissLatency::cpu.data     11346000                       # number of WriteReq MSHR miss ticks (Tick)
system.cpu.dcache.WriteReq.mshrMissLatency::total     11346000                       # number of WriteReq MSHR miss ticks (Tick)
system.cpu.dcache.WriteReq.mshrMissRate::cpu.data     0.004501                       # mshr miss rate for WriteReq accesses (Ratio)
system.cpu.dcache.WriteReq.mshrMissRate::total     0.004501                       # mshr miss rate for WriteReq accesses (Ratio)
system.cpu.dcache.WriteReq.avgMshrMissLatency::cpu.data 96152.542373                       # average WriteReq mshr miss latency ((Tick/Count))
system.cpu.dcache.WriteReq.avgMshrMissLatency::total 96152.542373                       # average WriteReq mshr miss latency ((Tick/Count))
system.cpu.dcache.power_state.pwrStateResidencyTicks::UNDEFINED  19752948000                       # Cumulative time (in ticks) in various power states (Tick)
system.cpu.dcache.tags.tagsInUse          1021.016873                       # Average ticks per tags in use ((Tick/Count))
system.cpu.dcache.tags.totalRefs              3002731                       # Total number of references to valid blocks. (Count)
system.cpu.dcache.tags.sampledRefs            1433913                       # Sample count of references to valid blocks. (Count)
system.cpu.dcache.tags.avgRefs               2.094082                       # Average number of references to valid blocks. ((Count/Count))
system.cpu.dcache.tags.warmupTick              222000                       # The tick when the warmup percentage was hit. (Tick)
system.cpu.dcache.tags.occupancies::cpu.data  1021.016873                       # Average occupied blocks per tick, per requestor ((Count/Tick))
system.cpu.dcache.tags.avgOccs::cpu.data     0.997087                       # Average percentage of cache occupancy ((Ratio/Tick))
system.cpu.dcache.tags.avgOccs::total        0.997087                       # Average percentage of cache occupancy ((Ratio/Tick))
system.cpu.dcache.tags.occupanciesTaskId::1024         1024                       # Occupied blocks per task id (Count)
system.cpu.dcache.tags.ageTaskId_1024::0          458                       # Occupied blocks per task id, per block age (Count)
system.cpu.dcache.tags.ageTaskId_1024::1          566                       # Occupied blocks per task id, per block age (Count)
system.cpu.dcache.tags.ratioOccsTaskId::1024            1                       # Ratio of occupied blocks and all blocks, per task id (Ratio)
system.cpu.dcache.tags.tagAccesses           11316469                       # Number of tag accesses (Count)
system.cpu.dcache.tags.dataAccesses          11316469                       # Number of data accesses (Count)
system.cpu.dcache.tags.power_state.pwrStateResidencyTicks::UNDEFINED  19752948000                       # Cumulative time (in ticks) in various power states (Tick)
system.cpu.decode.idleCycles                  1303168                       # Number of cycles decode is idle (Cycle)
system.cpu.decode.blockedCycles              14846198                       # Number of cycles decode is blocked (Cycle)
system.cpu.decode.runCycles                   2332180                       # Number of cycles decode is running (Cycle)
system.cpu.decode.unblockCycles               1224155                       # Number of cycles decode is unblocking (Cycle)
system.cpu.decode.squashCycles                  25409                       # Number of cycles decode is squashing (Cycle)
system.cpu.decode.branchResolved              1632843                       # Number of times decode resolved a branch (Count)
system.cpu.decode.branchMispred                   233                       # Number of times decode detected a branch misprediction (Count)
system.cpu.decode.decodedInsts               23179929                       # Number of instructions handled by decode (Count)
system.cpu.decode.squashedInsts                  1099                       # Number of squashed instructions handled by decode (Count)
system.cpu.dtb_walker_cache.blockedCycles::no_mshrs            0                       # number of cycles access was blocked (Cycle)
system.cpu.dtb_walker_cache.blockedCycles::no_targets            0                       # number of cycles access was blocked (Cycle)
system.cpu.dtb_walker_cache.blockedCauses::no_mshrs            0                       # number of times access was blocked (Count)
system.cpu.dtb_walker_cache.blockedCauses::no_targets            0                       # number of times access was blocked (Count)
system.cpu.dtb_walker_cache.avgBlocked::no_mshrs          nan                       # average number of cycles each access was blocked ((Cycle/Count))
system.cpu.dtb_walker_cache.avgBlocked::no_targets          nan                       # average number of cycles each access was blocked ((Cycle/Count))
system.cpu.dtb_walker_cache.replacements            0                       # number of replacements (Count)
system.cpu.dtb_walker_cache.power_state.pwrStateResidencyTicks::UNDEFINED  19752948000                       # Cumulative time (in ticks) in various power states (Tick)
system.cpu.dtb_walker_cache.tags.tagsInUse            0                       # Average ticks per tags in use ((Tick/Count))
system.cpu.dtb_walker_cache.tags.totalRefs            0                       # Total number of references to valid blocks. (Count)
system.cpu.dtb_walker_cache.tags.sampledRefs            0                       # Sample count of references to valid blocks. (Count)
system.cpu.dtb_walker_cache.tags.avgRefs          nan                       # Average number of references to valid blocks. ((Count/Count))
system.cpu.dtb_walker_cache.tags.warmupTick            0                       # The tick when the warmup percentage was hit. (Tick)
system.cpu.dtb_walker_cache.tags.tagAccesses            0                       # Number of tag accesses (Count)
system.cpu.dtb_walker_cache.tags.dataAccesses            0                       # Number of data accesses (Count)
system.cpu.dtb_walker_cache.tags.power_state.pwrStateResidencyTicks::UNDEFINED  19752948000                       # Cumulative time (in ticks) in various power states (Tick)
system.cpu.fetch.icacheStallCycles            3349305                       # Number of cycles fetch is stalled on an Icache miss (Cycle)
system.cpu.fetch.insts                       11842356                       # Number of instructions fetch has processed (Count)
system.cpu.fetch.branches                     1692309                       # Number of branches that fetch encountered (Count)
system.cpu.fetch.predictedBranches            1664262                       # Number of branches that fetch has predicted taken (Count)
system.cpu.fetch.cycles                      16355147                       # Number of cycles fetch has run and was not squashing or blocked (Cycle)
system.cpu.fetch.squashCycles                   51258                       # Number of cycles fetch has spent squashing (Cycle)
system.cpu.fetch.miscStallCycles                  148                       # Number of cycles fetch has spent waiting on interrupts, or bad addresses, or out of MSHRs (Cycle)
system.cpu.fetch.pendingTrapStallCycles           839                       # Number of stall cycles due to pending traps (Cycle)
system.cpu.fetch.icacheWaitRetryStallCycles           42                       # Number of stall cycles due to full MSHR (Cycle)
system.cpu.fetch.cacheLines                   3331734                       # Number of cache lines fetched (Count)
system.cpu.fetch.icacheSquashes                  7499                       # Number of outstanding Icache misses that were squashed (Count)
system.cpu.fetch.nisnDist::samples           19731110                       # Number of instructions fetched each cycle (Total) (Count)
system.cpu.fetch.nisnDist::mean              1.196863                       # Number of instructions fetched each cycle (Total) (Count)
system.cpu.fetch.nisnDist::stdev             2.448639                       # Number of instructions fetched each cycle (Total) (Count)
system.cpu.fetch.nisnDist::underflows               0      0.00%      0.00% # Number of instructions fetched each cycle (Total) (Count)
system.cpu.fetch.nisnDist::0                 14562490     73.80%     73.80% # Number of instructions fetched each cycle (Total) (Count)
system.cpu.fetch.nisnDist::1                  1503925      7.62%     81.43% # Number of instructions fetched each cycle (Total) (Count)
system.cpu.fetch.nisnDist::2                   124686      0.63%     82.06% # Number of instructions fetched each cycle (Total) (Count)
system.cpu.fetch.nisnDist::3                   155448      0.79%     82.85% # Number of instructions fetched each cycle (Total) (Count)
system.cpu.fetch.nisnDist::4                   184292      0.93%     83.78% # Number of instructions fetched each cycle (Total) (Count)
system.cpu.fetch.nisnDist::5                  1567782      7.95%     91.73% # Number of instructions fetched each cycle (Total) (Count)
system.cpu.fetch.nisnDist::6                    73736      0.37%     92.10% # Number of instructions fetched each cycle (Total) (Count)
system.cpu.fetch.nisnDist::7                    92709      0.47%     92.57% # Number of instructions fetched each cycle (Total) (Count)
system.cpu.fetch.nisnDist::8                  1466042      7.43%    100.00% # Number of instructions fetched each cycle (Total) (Count)
system.cpu.fetch.nisnDist::overflows                0      0.00%    100.00% # Number of instructions fetched each cycle (Total) (Count)
system.cpu.fetch.nisnDist::min_value                0                       # Number of instructions fetched each cycle (Total) (Count)
system.cpu.fetch.nisnDist::max_value                8                       # Number of instructions fetched each cycle (Total) (Count)
system.cpu.fetch.nisnDist::total             19731110                       # Number of instructions fetched each cycle (Total) (Count)
system.cpu.fetch.branchRate                  0.085674                       # Number of branch fetches per cycle (Ratio)
system.cpu.fetch.rate                        0.599523                       # Number of inst fetches per cycle ((Count/Cycle))
system.cpu.icache.demandHits::cpu.inst        3331127                       # number of demand (read+write) hits (Count)
system.cpu.icache.demandHits::total           3331127                       # number of demand (read+write) hits (Count)
system.cpu.icache.overallHits::cpu.inst       3331127                       # number of overall hits (Count)
system.cpu.icache.overallHits::total          3331127                       # number of overall hits (Count)
system.cpu.icache.demandMisses::cpu.inst          606                       # number of demand (read+write) misses (Count)
system.cpu.icache.demandMisses::total             606                       # number of demand (read+write) misses (Count)
system.cpu.icache.overallMisses::cpu.inst          606                       # number of overall misses (Count)
system.cpu.icache.overallMisses::total            606                       # number of overall misses (Count)
system.cpu.icache.demandMissLatency::cpu.inst     59368000                       # number of demand (read+write) miss ticks (Tick)
system.cpu.icache.demandMissLatency::total     59368000                       # number of demand (read+write) miss ticks (Tick)
system.cpu.icache.overallMissLatency::cpu.inst     59368000                       # number of overall miss ticks (Tick)
system.cpu.icache.overallMissLatency::total     59368000                       # number of overall miss ticks (Tick)
system.cpu.icache.demandAccesses::cpu.inst      3331733                       # number of demand (read+write) accesses (Count)
system.cpu.icache.demandAccesses::total       3331733                       # number of demand (read+write) accesses (Count)
system.cpu.icache.overallAccesses::cpu.inst      3331733                       # number of overall (read+write) accesses (Count)
system.cpu.icache.overallAccesses::total      3331733                       # number of overall (read+write) accesses (Count)
system.cpu.icache.demandMissRate::cpu.inst     0.000182                       # miss rate for demand accesses (Ratio)
system.cpu.icache.demandMissRate::total      0.000182                       # miss rate for demand accesses (Ratio)
system.cpu.icache.overallMissRate::cpu.inst     0.000182                       # miss rate for overall accesses (Ratio)
system.cpu.icache.overallMissRate::total     0.000182                       # miss rate for overall accesses (Ratio)
system.cpu.icache.demandAvgMissLatency::cpu.inst 97966.996700                       # average overall miss latency in ticks ((Tick/Count))
system.cpu.icache.demandAvgMissLatency::total 97966.996700                       # average overall miss latency in ticks ((Tick/Count))
system.cpu.icache.overallAvgMissLatency::cpu.inst 97966.996700                       # average overall miss latency ((Tick/Count))
system.cpu.icache.overallAvgMissLatency::total 97966.996700                       # average overall miss latency ((Tick/Count))
system.cpu.icache.blockedCycles::no_mshrs           72                       # number of cycles access was blocked (Cycle)
system.cpu.icache.blockedCycles::no_targets            0                       # number of cycles access was blocked (Cycle)
system.cpu.icache.blockedCauses::no_mshrs            4                       # number of times access was blocked (Count)
system.cpu.icache.blockedCauses::no_targets            0                       # number of times access was blocked (Count)
system.cpu.icache.avgBlocked::no_mshrs             18                       # average number of cycles each access was blocked ((Cycle/Count))
system.cpu.icache.avgBlocked::no_targets          nan                       # average number of cycles each access was blocked ((Cycle/Count))
system.cpu.icache.writebacks::writebacks           21                       # number of writebacks (Count)
system.cpu.icache.writebacks::total                21                       # number of writebacks (Count)
system.cpu.icache.demandMshrHits::cpu.inst          119                       # number of demand (read+write) MSHR hits (Count)
system.cpu.icache.demandMshrHits::total           119                       # number of demand (read+write) MSHR hits (Count)
system.cpu.icache.overallMshrHits::cpu.inst          119                       # number of overall MSHR hits (Count)
system.cpu.icache.overallMshrHits::total          119                       # number of overall MSHR hits (Count)
system.cpu.icache.demandMshrMisses::cpu.inst          487                       # number of demand (read+write) MSHR misses (Count)
system.cpu.icache.demandMshrMisses::total          487                       # number of demand (read+write) MSHR misses (Count)
system.cpu.icache.overallMshrMisses::cpu.inst          487                       # number of overall MSHR misses (Count)
system.cpu.icache.overallMshrMisses::total          487                       # number of overall MSHR misses (Count)
system.cpu.icache.demandMshrMissLatency::cpu.inst     49914000                       # number of demand (read+write) MSHR miss ticks (Tick)
system.cpu.icache.demandMshrMissLatency::total     49914000                       # number of demand (read+write) MSHR miss ticks (Tick)
system.cpu.icache.overallMshrMissLatency::cpu.inst     49914000                       # number of overall MSHR miss ticks (Tick)
system.cpu.icache.overallMshrMissLatency::total     49914000                       # number of overall MSHR miss ticks (Tick)
system.cpu.icache.demandMshrMissRate::cpu.inst     0.000146                       # mshr miss ratio for demand accesses (Ratio)
system.cpu.icache.demandMshrMissRate::total     0.000146                       # mshr miss ratio for demand accesses (Ratio)
system.cpu.icache.overallMshrMissRate::cpu.inst     0.000146                       # mshr miss ratio for overall accesses (Ratio)
system.cpu.icache.overallMshrMissRate::total     0.000146                       # mshr miss ratio for overall accesses (Ratio)
system.cpu.icache.demandAvgMshrMissLatency::cpu.inst 102492.813142                       # average overall mshr miss latency ((Tick/Count))
system.cpu.icache.demandAvgMshrMissLatency::total 102492.813142                       # average overall mshr miss latency ((Tick/Count))
system.cpu.icache.overallAvgMshrMissLatency::cpu.inst 102492.813142                       # average overall mshr miss latency ((Tick/Count))
system.cpu.icache.overallAvgMshrMissLatency::total 102492.813142                       # average overall mshr miss latency ((Tick/Count))
system.cpu.icache.replacements                     21                       # number of replacements (Count)
system.cpu.icache.ReadReq.hits::cpu.inst      3331127                       # number of ReadReq hits (Count)
system.cpu.icache.ReadReq.hits::total         3331127                       # number of ReadReq hits (Count)
system.cpu.icache.ReadReq.misses::cpu.inst          606                       # number of ReadReq misses (Count)
system.cpu.icache.ReadReq.misses::total           606                       # number of ReadReq misses (Count)
system.cpu.icache.ReadReq.missLatency::cpu.inst     59368000                       # number of ReadReq miss ticks (Tick)
system.cpu.icache.ReadReq.missLatency::total     59368000                       # number of ReadReq miss ticks (Tick)
system.cpu.icache.ReadReq.accesses::cpu.inst      3331733                       # number of ReadReq accesses(hits+misses) (Count)
system.cpu.icache.ReadReq.accesses::total      3331733                       # number of ReadReq accesses(hits+misses) (Count)
system.cpu.icache.ReadReq.missRate::cpu.inst     0.000182                       # miss rate for ReadReq accesses (Ratio)
system.cpu.icache.ReadReq.missRate::total     0.000182                       # miss rate for ReadReq accesses (Ratio)
system.cpu.icache.ReadReq.avgMissLatency::cpu.inst 97966.996700                       # average ReadReq miss latency ((Tick/Count))
system.cpu.icache.ReadReq.avgMissLatency::total 97966.996700                       # average ReadReq miss latency ((Tick/Count))
system.cpu.icache.ReadReq.mshrHits::cpu.inst          119                       # number of ReadReq MSHR hits (Count)
system.cpu.icache.ReadReq.mshrHits::total          119                       # number of ReadReq MSHR hits (Count)
system.cpu.icache.ReadReq.mshrMisses::cpu.inst          487                       # number of ReadReq MSHR misses (Count)
system.cpu.icache.ReadReq.mshrMisses::total          487                       # number of ReadReq MSHR misses (Count)
system.cpu.icache.ReadReq.mshrMissLatency::cpu.inst     49914000                       # number of ReadReq MSHR miss ticks (Tick)
system.cpu.icache.ReadReq.mshrMissLatency::total     49914000                       # number of ReadReq MSHR miss ticks (Tick)
system.cpu.icache.ReadReq.mshrMissRate::cpu.inst     0.000146                       # mshr miss rate for ReadReq accesses (Ratio)
system.cpu.icache.ReadReq.mshrMissRate::total     0.000146                       # mshr miss rate for ReadReq accesses (Ratio)
system.cpu.icache.ReadReq.avgMshrMissLatency::cpu.inst 102492.813142                       # average ReadReq mshr miss latency ((Tick/Count))
system.cpu.icache.ReadReq.avgMshrMissLatency::total 102492.813142                       # average ReadReq mshr miss latency ((Tick/Count))
system.cpu.icache.power_state.pwrStateResidencyTicks::UNDEFINED  19752948000                       # Cumulative time (in ticks) in various power states (Tick)
system.cpu.icache.tags.tagsInUse           430.484860                       # Average ticks per tags in use ((Tick/Count))
system.cpu.icache.tags.totalRefs              3331613                       # Total number of references to valid blocks. (Count)
system.cpu.icache.tags.sampledRefs                486                       # Sample count of references to valid blocks. (Count)
system.cpu.icache.tags.avgRefs            6855.170782                       # Average number of references to valid blocks. ((Count/Count))
system.cpu.icache.tags.warmupTick              107000                       # The tick when the warmup percentage was hit. (Tick)
system.cpu.icache.tags.occupancies::cpu.inst   430.484860                       # Average occupied blocks per tick, per requestor ((Count/Tick))
system.cpu.icache.tags.avgOccs::cpu.inst     0.420395                       # Average percentage of cache occupancy ((Ratio/Tick))
system.cpu.icache.tags.avgOccs::total        0.420395                       # Average percentage of cache occupancy ((Ratio/Tick))
system.cpu.icache.tags.occupanciesTaskId::1024          465                       # Occupied blocks per task id (Count)
system.cpu.icache.tags.ageTaskId_1024::0           38                       # Occupied blocks per task id, per block age (Count)
system.cpu.icache.tags.ageTaskId_1024::4          427                       # Occupied blocks per task id, per block age (Count)
system.cpu.icache.tags.ratioOccsTaskId::1024     0.454102                       # Ratio of occupied blocks and all blocks, per task id (Ratio)
system.cpu.icache.tags.tagAccesses            6663952                       # Number of tag accesses (Count)
system.cpu.icache.tags.dataAccesses           6663952                       # Number of data accesses (Count)
system.cpu.icache.tags.power_state.pwrStateResidencyTicks::UNDEFINED  19752948000                       # Cumulative time (in ticks) in various power states (Tick)
system.cpu.iew.idleCycles                           0                       # Number of cycles IEW is idle (Cycle)
system.cpu.iew.squashCycles                     25409                       # Number of cycles IEW is squashing (Cycle)
system.cpu.iew.blockCycles                    3123786                       # Number of cycles IEW is blocking (Cycle)
system.cpu.iew.unblockCycles                  2354086                       # Number of cycles IEW is unblocking (Cycle)
system.cpu.iew.dispatchedInsts               22930896                       # Number of instructions dispatched to IQ (Count)
system.cpu.iew.dispSquashedInsts                 6894                       # Number of squashed instructions skipped by dispatch (Count)
system.cpu.iew.dispLoadInsts                  4881773                       # Number of dispatched load instructions (Count)
system.cpu.iew.dispStoreInsts                   27492                       # Number of dispatched store instructions (Count)
system.cpu.iew.dispNonSpecInsts                     3                       # Number of dispatched non-speculative instructions (Count)
system.cpu.iew.iqFullEvents                     61839                       # Number of times the IQ has become full, causing a stall (Count)
system.cpu.iew.lsqFullEvents                  2165748                       # Number of times the LSQ has become full, causing a stall (Count)
system.cpu.iew.memOrderViolationEvents             15                       # Number of memory order violations (Count)
system.cpu.iew.predictedTakenIncorrect          27506                       # Number of branches that were predicted taken incorrectly (Count)
system.cpu.iew.predictedNotTakenIncorrect         1466                       # Number of branches that were predicted not taken incorrectly (Count)
system.cpu.iew.branchMispredicts                28972                       # Number of branch mispredicts detected at execute (Count)
system.cpu.iew.instsToCommit                 22722516                       # Cumulative count of insts sent to commit (Count)
system.cpu.iew.writebackCount                22720950                       # Cumulative count of insts written-back (Count)
system.cpu.iew.producerInst                  17169598                       # Number of instructions producing a value (Count)
system.cpu.iew.consumerInst                  23363360                       # Number of instructions consuming a value (Count)
system.cpu.iew.wbRate                        1.150256                       # Insts written-back per cycle ((Count/Cycle))
system.cpu.iew.wbFanout                      0.734894                       # Average fanout of values written-back ((Count/Count))
system.cpu.interrupts.clk_domain.clock          16000                       # Clock period in ticks (Tick)
system.cpu.itb_walker_cache.blockedCycles::no_mshrs            0                       # number of cycles access was blocked (Cycle)
system.cpu.itb_walker_cache.blockedCycles::no_targets            0                       # number of cycles access was blocked (Cycle)
system.cpu.itb_walker_cache.blockedCauses::no_mshrs            0                       # number of times access was blocked (Count)
system.cpu.itb_walker_cache.blockedCauses::no_targets            0                       # number of times access was blocked (Count)
system.cpu.itb_walker_cache.avgBlocked::no_mshrs          nan                       # average number of cycles each access was blocked ((Cycle/Count))
system.cpu.itb_walker_cache.avgBlocked::no_targets          nan                       # average number of cycles each access was blocked ((Cycle/Count))
system.cpu.itb_walker_cache.replacements            0                       # number of replacements (Count)
system.cpu.itb_walker_cache.power_state.pwrStateResidencyTicks::UNDEFINED  19752948000                       # Cumulative time (in ticks) in various power states (Tick)
system.cpu.itb_walker_cache.tags.tagsInUse            0                       # Average ticks per tags in use ((Tick/Count))
system.cpu.itb_walker_cache.tags.totalRefs            0                       # Total number of references to valid blocks. (Count)
system.cpu.itb_walker_cache.tags.sampledRefs            0                       # Sample count of references to valid blocks. (Count)
system.cpu.itb_walker_cache.tags.avgRefs          nan                       # Average number of references to valid blocks. ((Count/Count))
system.cpu.itb_walker_cache.tags.warmupTick            0                       # The tick when the warmup percentage was hit. (Tick)
system.cpu.itb_walker_cache.tags.tagAccesses            0                       # Number of tag accesses (Count)
system.cpu.itb_walker_cache.tags.dataAccesses            0                       # Number of data accesses (Count)
system.cpu.itb_walker_cache.tags.power_state.pwrStateResidencyTicks::UNDEFINED  19752948000                       # Cumulative time (in ticks) in various power states (Tick)
system.cpu.lsq0.forwLoads                         175                       # Number of loads that had data forwarded from stores (Count)
system.cpu.lsq0.squashedLoads                   78050                       # Number of loads squashed (Count)
system.cpu.lsq0.ignoredResponses                    2                       # Number of memory responses ignored because the instruction is squashed (Count)
system.cpu.lsq0.memOrderViolation                  15                       # Number of memory ordering violations (Count)
system.cpu.lsq0.squashedStores                   1279                       # Number of stores squashed (Count)
system.cpu.lsq0.rescheduledLoads                    0                       # Number of loads that were rescheduled (Count)
system.cpu.lsq0.blockedByCache                1015563                       # Number of times an access to memory failed due to the cache being blocked (Count)
system.cpu.lsq0.loadToUse::samples            4803723                       # Distribution of cycle latency between the first time a load is issued and its completion (Unspecified)
system.cpu.lsq0.loadToUse::mean             62.054403                       # Distribution of cycle latency between the first time a load is issued and its completion (Unspecified)
system.cpu.lsq0.loadToUse::stdev            49.982405                       # Distribution of cycle latency between the first time a load is issued and its completion (Unspecified)
system.cpu.lsq0.loadToUse::0-9                 448617      9.34%      9.34% # Distribution of cycle latency between the first time a load is issued and its completion (Unspecified)
system.cpu.lsq0.loadToUse::10-19               402105      8.37%     17.71% # Distribution of cycle latency between the first time a load is issued and its completion (Unspecified)
system.cpu.lsq0.loadToUse::20-29               746572     15.54%     33.25% # Distribution of cycle latency between the first time a load is issued and its completion (Unspecified)
system.cpu.lsq0.loadToUse::30-39               442241      9.21%     42.46% # Distribution of cycle latency between the first time a load is issued and its completion (Unspecified)
system.cpu.lsq0.loadToUse::40-49               256990      5.35%     47.81% # Distribution of cycle latency between the first time a load is issued and its completion (Unspecified)
system.cpu.lsq0.loadToUse::50-59               527990     10.99%     58.80% # Distribution of cycle latency between the first time a load is issued and its completion (Unspecified)
system.cpu.lsq0.loadToUse::60-69               201356      4.19%     62.99% # Distribution of cycle latency between the first time a load is issued and its completion (Unspecified)
system.cpu.lsq0.loadToUse::70-79               224997      4.68%     67.67% # Distribution of cycle latency between the first time a load is issued and its completion (Unspecified)
system.cpu.lsq0.loadToUse::80-89               269847      5.62%     73.29% # Distribution of cycle latency between the first time a load is issued and its completion (Unspecified)
system.cpu.lsq0.loadToUse::90-99               288519      6.01%     79.30% # Distribution of cycle latency between the first time a load is issued and its completion (Unspecified)
[...]
system.mem_ctrls.dram.perBankWrBursts::12           42                       # Per bank write bursts (Count)
system.mem_ctrls.dram.perBankWrBursts::13            0                       # Per bank write bursts (Count)
system.mem_ctrls.dram.perBankWrBursts::14            0                       # Per bank write bursts (Count)
system.mem_ctrls.dram.perBankWrBursts::15            8                       # Per bank write bursts (Count)
system.mem_ctrls.dram.totQLat              4436034250                       # Total ticks spent queuing (Tick)
system.mem_ctrls.dram.totBusLat            1024675000                       # Total ticks spent in databus transfers (Tick)
system.mem_ctrls.dram.totMemAccLat         8278565500                       # Total ticks spent from burst creation until serviced by the DRAM (Tick)
system.mem_ctrls.dram.avgQLat                21646.05                       # Average queueing delay per DRAM burst ((Tick/Count))
system.mem_ctrls.dram.avgBusLat               5000.00                       # Average bus latency per DRAM burst ((Tick/Count))
system.mem_ctrls.dram.avgMemAccLat           40396.05                       # Average memory access latency per DRAM burst ((Tick/Count))
system.mem_ctrls.dram.readRowHits              115375                       # Number of row buffer hits during reads (Count)
system.mem_ctrls.dram.writeRowHits               1248                       # Number of row buffer hits during writes (Count)
system.mem_ctrls.dram.readRowHitRate            56.30                       # Row buffer hit rate for reads (Ratio)
system.mem_ctrls.dram.writeRowHitRate           88.83                       # Row buffer hit rate for writes (Ratio)
system.mem_ctrls.dram.bytesPerActivate::samples        89704                       # Bytes accessed per row activation (Byte)
system.mem_ctrls.dram.bytesPerActivate::mean   147.183448                       # Bytes accessed per row activation (Byte)
system.mem_ctrls.dram.bytesPerActivate::gmean    91.384425                       # Bytes accessed per row activation (Byte)
system.mem_ctrls.dram.bytesPerActivate::stdev   234.600262                       # Bytes accessed per row activation (Byte)
system.mem_ctrls.dram.bytesPerActivate::0-127        65702     73.24%     73.24% # Bytes accessed per row activation (Byte)
system.mem_ctrls.dram.bytesPerActivate::128-255        15639     17.43%     90.68% # Bytes accessed per row activation (Byte)
system.mem_ctrls.dram.bytesPerActivate::256-383          744      0.83%     91.51% # Bytes accessed per row activation (Byte)
system.mem_ctrls.dram.bytesPerActivate::384-511          555      0.62%     92.13% # Bytes accessed per row activation (Byte)
system.mem_ctrls.dram.bytesPerActivate::512-639          480      0.54%     92.66% # Bytes accessed per row activation (Byte)
system.mem_ctrls.dram.bytesPerActivate::640-767          688      0.77%     93.43% # Bytes accessed per row activation (Byte)
system.mem_ctrls.dram.bytesPerActivate::768-895          921      1.03%     94.45% # Bytes accessed per row activation (Byte)
system.mem_ctrls.dram.bytesPerActivate::896-1023          314      0.35%     94.80% # Bytes accessed per row activation (Byte)
system.mem_ctrls.dram.bytesPerActivate::1024-1151         4661      5.20%    100.00% # Bytes accessed per row activation (Byte)
system.mem_ctrls.dram.bytesPerActivate::total        89704                       # Bytes accessed per row activation (Byte)
system.mem_ctrls.dram.bytesRead              13115840                       # Total bytes read (Byte)
system.mem_ctrls.dram.bytesWritten              89920                       # Total bytes written (Byte)
system.mem_ctrls.dram.avgRdBW              663.994053                       # Average DRAM read bandwidth in MiBytes/s ((Byte/Second))
system.mem_ctrls.dram.avgWrBW                4.552232                       # Average DRAM write bandwidth in MiBytes/s ((Byte/Second))
system.mem_ctrls.dram.peakBW                 12800.00                       # Theoretical peak bandwidth in MiByte/s ((Byte/Second))
system.mem_ctrls.dram.busUtil                    5.22                       # Data bus utilization in percentage (Ratio)
system.mem_ctrls.dram.busUtilRead                5.19                       # Data bus utilization in percentage for reads (Ratio)
system.mem_ctrls.dram.busUtilWrite               0.04                       # Data bus utilization in percentage for writes (Ratio)
system.mem_ctrls.dram.pageHitRate               56.52                       # Row buffer hit rate, read and write combined (Ratio)
system.mem_ctrls.dram.power_state.pwrStateResidencyTicks::UNDEFINED  19752948000                       # Cumulative time (in ticks) in various power states (Tick)
system.mem_ctrls.dram.rank0.actEnergy       321000120                       # Energy for activate commands per rank (pJ) (Joule)
system.mem_ctrls.dram.rank0.preEnergy       170589045                       # Energy for precharge commands per rank (pJ) (Joule)
system.mem_ctrls.dram.rank0.readEnergy      733285140                       # Energy for read commands per rank (pJ) (Joule)
system.mem_ctrls.dram.rank0.writeEnergy        991800                       # Energy for write commands per rank (pJ) (Joule)
system.mem_ctrls.dram.rank0.refreshEnergy 1558727040.000000                       # Energy for refresh commands per rank (pJ) (Joule)
system.mem_ctrls.dram.rank0.actBackEnergy   6106017840                       # Energy for active background per rank (pJ) (Joule)
system.mem_ctrls.dram.rank0.preBackEnergy   2443222560                       # Energy for precharge background per rank (pJ) (Joule)
system.mem_ctrls.dram.rank0.actPowerDownEnergy            0                       # Energy for active power-down per rank (pJ) (Joule)
system.mem_ctrls.dram.rank0.prePowerDownEnergy            0                       # Energy for precharge power-down per rank (pJ) (Joule)
system.mem_ctrls.dram.rank0.selfRefreshEnergy            0                       # Energy for self refresh per rank (pJ) (Joule)
system.mem_ctrls.dram.rank0.totalEnergy   11333833545                       # Total energy per rank (pJ) (Joule)
system.mem_ctrls.dram.rank0.averagePower   573.779344                       # Core power per rank (mW) (Watt)
system.mem_ctrls.dram.rank0.totalIdleTime            0                       # Total Idle time Per DRAM Rank (Tick)
system.mem_ctrls.dram.rank0.pwrStateTime::IDLE   6002001500                       # Time in different power states (Tick)
system.mem_ctrls.dram.rank0.pwrStateTime::REF    659360000                       # Time in different power states (Tick)
system.mem_ctrls.dram.rank0.pwrStateTime::SREF            0                       # Time in different power states (Tick)
system.mem_ctrls.dram.rank0.pwrStateTime::PRE_PDN            0                       # Time in different power states (Tick)
system.mem_ctrls.dram.rank0.pwrStateTime::ACT  13091586500                       # Time in different power states (Tick)
system.mem_ctrls.dram.rank0.pwrStateTime::ACT_PDN            0                       # Time in different power states (Tick)
system.mem_ctrls.dram.rank1.actEnergy       319579260                       # Energy for activate commands per rank (pJ) (Joule)
system.mem_ctrls.dram.rank1.preEnergy       169837635                       # Energy for precharge commands per rank (pJ) (Joule)
system.mem_ctrls.dram.rank1.readEnergy      729950760                       # Energy for read commands per rank (pJ) (Joule)
system.mem_ctrls.dram.rank1.writeEnergy       6342300                       # Energy for write commands per rank (pJ) (Joule)
system.mem_ctrls.dram.rank1.refreshEnergy 1558727040.000000                       # Energy for refresh commands per rank (pJ) (Joule)
system.mem_ctrls.dram.rank1.actBackEnergy   6100056780                       # Energy for active background per rank (pJ) (Joule)
system.mem_ctrls.dram.rank1.preBackEnergy   2448242400                       # Energy for precharge background per rank (pJ) (Joule)
system.mem_ctrls.dram.rank1.actPowerDownEnergy            0                       # Energy for active power-down per rank (pJ) (Joule)
system.mem_ctrls.dram.rank1.prePowerDownEnergy            0                       # Energy for precharge power-down per rank (pJ) (Joule)
system.mem_ctrls.dram.rank1.selfRefreshEnergy            0                       # Energy for self refresh per rank (pJ) (Joule)
system.mem_ctrls.dram.rank1.totalEnergy   11332736175                       # Total energy per rank (pJ) (Joule)
system.mem_ctrls.dram.rank1.averagePower   573.723789                       # Core power per rank (mW) (Watt)
system.mem_ctrls.dram.rank1.totalIdleTime            0                       # Total Idle time Per DRAM Rank (Tick)
system.mem_ctrls.dram.rank1.pwrStateTime::IDLE   5999088250                       # Time in different power states (Tick)
system.mem_ctrls.dram.rank1.pwrStateTime::REF    659360000                       # Time in different power states (Tick)
system.mem_ctrls.dram.rank1.pwrStateTime::SREF            0                       # Time in different power states (Tick)
system.mem_ctrls.dram.rank1.pwrStateTime::PRE_PDN            0                       # Time in different power states (Tick)
system.mem_ctrls.dram.rank1.pwrStateTime::ACT  13094499750                       # Time in different power states (Tick)
system.mem_ctrls.dram.rank1.pwrStateTime::ACT_PDN            0                       # Time in different power states (Tick)
system.mem_ctrls.power_state.pwrStateResidencyTicks::UNDEFINED  19752948000                       # Cumulative time (in ticks) in various power states (Tick)
system.membus.transDist::ReadResp              204824                       # Transaction distribution (Count)
system.membus.transDist::WritebackDirty          1433                       # Transaction distribution (Count)
system.membus.transDist::CleanEvict            170308                       # Transaction distribution (Count)
system.membus.transDist::ReadExReq                112                       # Transaction distribution (Count)
system.membus.transDist::ReadExResp               112                       # Transaction distribution (Count)
system.membus.transDist::ReadSharedReq         204824                       # Transaction distribution (Count)
system.membus.pktCount_system.l2.mem_side_port::system.mem_ctrls.port       581613                       # Packet count per connected requestor and responder (Count)
system.membus.pktCount_system.l2.mem_side_port::total       581613                       # Packet count per connected requestor and responder (Count)
system.membus.pktCount::total                  581613                       # Packet count per connected requestor and responder (Count)
system.membus.pktSize_system.l2.mem_side_port::system.mem_ctrls.port     13207616                       # Cumulative packet size per connected requestor and responder (Byte)
system.membus.pktSize_system.l2.mem_side_port::total     13207616                       # Cumulative packet size per connected requestor and responder (Byte)
system.membus.pktSize::total                 13207616                       # Cumulative packet size per connected requestor and responder (Byte)
system.membus.snoops                                0                       # Total snoops (Count)
system.membus.snoopTraffic                          0                       # Total snoop traffic (Byte)
system.membus.snoopFanout::samples             204936                       # Request fanout histogram (Count)
system.membus.snoopFanout::mean                     0                       # Request fanout histogram (Count)
system.membus.snoopFanout::stdev                    0                       # Request fanout histogram (Count)
system.membus.snoopFanout::underflows               0      0.00%      0.00% # Request fanout histogram (Count)
system.membus.snoopFanout::0                   204936    100.00%    100.00% # Request fanout histogram (Count)
system.membus.snoopFanout::1                        0      0.00%    100.00% # Request fanout histogram (Count)
system.membus.snoopFanout::overflows                0      0.00%    100.00% # Request fanout histogram (Count)
system.membus.snoopFanout::min_value                0                       # Request fanout histogram (Count)
system.membus.snoopFanout::max_value                0                       # Request fanout histogram (Count)
system.membus.snoopFanout::total               204936                       # Request fanout histogram (Count)
system.membus.power_state.pwrStateResidencyTicks::UNDEFINED  19752948000                       # Cumulative time (in ticks) in various power states (Tick)
system.membus.reqLayer2.occupancy           382409000                       # Layer occupancy (ticks) (Tick)
system.membus.reqLayer2.utilization               0.0                       # Layer utilization (Ratio)
system.membus.respLayer1.occupancy         1087223500                       # Layer occupancy (ticks) (Tick)
system.membus.respLayer1.utilization              0.1                       # Layer utilization (Ratio)
system.membus.snoop_filter.totRequests         376677                       # Total number of requests made to the snoop filter. (Count)
system.membus.snoop_filter.hitSingleRequests       171741                       # Number of requests hitting in the snoop filter with a single holder of the requested data. (Count)
system.membus.snoop_filter.hitMultiRequests            0                       # Number of requests hitting in the snoop filter with multiple (>1) holders of the requested data. (Count)
system.membus.snoop_filter.totSnoops                0                       # Total number of snoops made to the snoop filter. (Count)
system.membus.snoop_filter.hitSingleSnoops            0                       # Number of snoops hitting in the snoop filter with a single holder of the requested data. (Count)
system.membus.snoop_filter.hitMultiSnoops            0                       # Number of snoops hitting in the snoop filter with multiple (>1) holders of the requested data. (Count)
system.tol2bus.transDist::ReadResp            1434281                       # Transaction distribution (Count)
system.tol2bus.transDist::WritebackDirty         3282                       # Transaction distribution (Count)
system.tol2bus.transDist::WritebackClean           21                       # Transaction distribution (Count)
system.tol2bus.transDist::CleanEvict          1601779                       # Transaction distribution (Count)
system.tol2bus.transDist::ReadExReq               118                       # Transaction distribution (Count)
system.tol2bus.transDist::ReadExResp              118                       # Transaction distribution (Count)
system.tol2bus.transDist::ReadCleanReq            487                       # Transaction distribution (Count)
system.tol2bus.transDist::ReadSharedReq       1433795                       # Transaction distribution (Count)
system.tol2bus.pktCount_system.cpu.icache.mem_side_port::system.l2.cpu_side_port          994                       # Packet count per connected requestor and responder (Count)
system.tol2bus.pktCount_system.cpu.dcache.mem_side_port::system.l2.cpu_side_port      4300715                       # Packet count per connected requestor and responder (Count)
system.tol2bus.pktCount::total                4301709                       # Packet count per connected requestor and responder (Count)
system.tol2bus.pktSize_system.cpu.icache.mem_side_port::system.l2.cpu_side_port        32448                       # Cumulative packet size per connected requestor and responder (Byte)
system.tol2bus.pktSize_system.cpu.dcache.mem_side_port::system.l2.cpu_side_port     91888768                       # Cumulative packet size per connected requestor and responder (Byte)
system.tol2bus.pktSize::total                91921216                       # Cumulative packet size per connected requestor and responder (Byte)
system.tol2bus.snoops                          172172                       # Total snoops (Count)
system.tol2bus.snoopTraffic                     91712                       # Total snoop traffic (Byte)
system.tol2bus.snoopFanout::samples           1606572                       # Request fanout histogram (Count)
system.tol2bus.snoopFanout::mean             0.000268                       # Request fanout histogram (Count)
system.tol2bus.snoopFanout::stdev            0.016377                       # Request fanout histogram (Count)
system.tol2bus.snoopFanout::underflows              0      0.00%      0.00% # Request fanout histogram (Count)
system.tol2bus.snoopFanout::0                 1606141     99.97%     99.97% # Request fanout histogram (Count)
system.tol2bus.snoopFanout::1                     431      0.03%    100.00% # Request fanout histogram (Count)
system.tol2bus.snoopFanout::2                       0      0.00%    100.00% # Request fanout histogram (Count)
system.tol2bus.snoopFanout::3                       0      0.00%    100.00% # Request fanout histogram (Count)
system.tol2bus.snoopFanout::4                       0      0.00%    100.00% # Request fanout histogram (Count)
system.tol2bus.snoopFanout::overflows               0      0.00%    100.00% # Request fanout histogram (Count)
system.tol2bus.snoopFanout::min_value               0                       # Request fanout histogram (Count)
system.tol2bus.snoopFanout::max_value               1                       # Request fanout histogram (Count)
system.tol2bus.snoopFanout::total             1606572                       # Request fanout histogram (Count)
system.tol2bus.power_state.pwrStateResidencyTicks::UNDEFINED  19752948000                       # Cumulative time (in ticks) in various power states (Tick)
system.tol2bus.reqLayer0.occupancy         2871050000                       # Layer occupancy (ticks) (Tick)
system.tol2bus.reqLayer0.utilization              0.1                       # Layer utilization (Ratio)
system.tol2bus.respLayer0.occupancy           1458000                       # Layer occupancy (ticks) (Tick)
system.tol2bus.respLayer0.utilization             0.0                       # Layer utilization (Ratio)
system.tol2bus.respLayer1.occupancy        4301739000                       # Layer occupancy (ticks) (Tick)
system.tol2bus.respLayer1.utilization             0.2                       # Layer utilization (Ratio)
system.tol2bus.snoop_filter.totRequests       2867310                       # Total number of requests made to the snoop filter. (Count)
system.tol2bus.snoop_filter.hitSingleRequests      1432910                       # Number of requests hitting in the snoop filter with a single holder of the requested data. (Count)
system.tol2bus.snoop_filter.hitMultiRequests            0                       # Number of requests hitting in the snoop filter with multiple (>1) holders of the requested data. (Count)
system.tol2bus.snoop_filter.totSnoops             431                       # Total number of snoops made to the snoop filter. (Count)
system.tol2bus.snoop_filter.hitSingleSnoops          431                       # Number of snoops hitting in the snoop filter with a single holder of the requested data. (Count)
system.tol2bus.snoop_filter.hitMultiSnoops            0                       # Number of snoops hitting in the snoop filter with multiple (>1) holders of the requested data. (Count)
system.voltage_domain.voltage                       1                       # Voltage in Volts (Volt)
system.workload.inst.arm                            0                       # number of arm instructions executed (Count)
system.workload.inst.quiesce                        0                       # number of quiesce instructions executed (Count)

---------- End Simulation Statistics   ----------
