
---------- Begin Simulation Statistics ----------
simSeconds                                   0.042017                       # Number of seconds simulated (Second)
simTicks                                  42017385000                       # Number of ticks simulated (Tick)
finalTick                                 42017385000                       # Number of ticks from beginning of simulation (restored from checkpoints and never reset) (Tick)
simFreq                                  1000000000000                       # The number of ticks per simulated second ((Tick/Second))
hostSeconds                                     53.32                       # Real time elapsed on the host (Second)
hostTickRate                                788069544                       # The number of ticks simulated per host second (ticks/s) ((Tick/Second))
hostMemory                                     659160                       # Number of bytes of host memory used (Byte)
simInsts                                      9995995                       # Number of instructions simulated (Count)
simOps                                       17794319                       # Number of ops (including micro ops) simulated (Count)
hostInstRate                                   187483                       # Simulator instruction rate (inst/s) ((Count/Second))
hostOpRate                                     333746                       # Simulator op (including micro ops) rate (op/s) ((Count/Second))
system.clk_domain.clock                          1000                       # Clock period in ticks (Tick)
system.cpu.numCycles                         42017386                       # Number of cpu cycles simulated (Cycle)
system.cpu.numWorkItemsStarted                      0                       # Number of work items this cpu started (Count)
system.cpu.numWorkItemsCompleted                    0                       # Number of work items this cpu completed (Count)
system.cpu.instsAdded                        17867907                       # Number of instructions added to the IQ (excludes non-spec) (Count)
system.cpu.nonSpecInstsAdded                       34                       # Number of non-speculative instructions added to the IQ (Count)
system.cpu.instsIssued                       17862343                       # Number of instructions issued (Count)
system.cpu.squashedInstsIssued                    149                       # Number of squashed instructions issued (Count)
system.cpu.squashedInstsExamined                73616                       # Number of squashed instructions iterated over during squash; mainly for profiling (Count)
system.cpu.squashedOperandsExamined             51879                       # Number of squashed operands that are examined and possibly removed from graph (Count)
system.cpu.squashedNonSpecRemoved                  22                       # Number of squashed non-spec instructions that were removed (Count)
system.cpu.numIssuedDist::samples            42000371                       # Number of insts issued each cycle (Count)
system.cpu.numIssuedDist::mean               0.425290                       # Number of insts issued each cycle (Count)
system.cpu.numIssuedDist::stdev              1.246513                       # Number of insts issued each cycle (Count)
system.cpu.numIssuedDist::underflows                0      0.00%      0.00% # Number of insts issued each cycle (Count)
system.cpu.numIssuedDist::0                  36566058     87.06%     87.06% # Number of insts issued each cycle (Count)
system.cpu.numIssuedDist::1                    796341      1.90%     88.96% # Number of insts issued each cycle (Count)
system.cpu.numIssuedDist::2                   1442351      3.43%     92.39% # Number of insts issued each cycle (Count)
system.cpu.numIssuedDist::3                    739119      1.76%     94.15% # Number of insts issued each cycle (Count)
system.cpu.numIssuedDist::4                    795389      1.89%     96.05% # Number of insts issued each cycle (Count)
system.cpu.numIssuedDist::5                   1244356      2.96%     99.01% # Number of insts issued each cycle (Count)
system.cpu.numIssuedDist::6                    366472      0.87%     99.88% # Number of insts issued each cycle (Count)
system.cpu.numIssuedDist::7                     40505      0.10%     99.98% # Number of insts issued each cycle (Count)
system.cpu.numIssuedDist::8                      9780      0.02%    100.00% # Number of insts issued each cycle (Count)
system.cpu.numIssuedDist::overflows                 0      0.00%    100.00% # Number of insts issued each cycle (Count)
system.cpu.numIssuedDist::min_value                 0                       # Number of insts issued each cycle (Count)
system.cpu.numIssuedDist::max_value                 8                       # Number of insts issued each cycle (Count)
system.cpu.numIssuedDist::total              42000371                       # Number of insts issued each cycle (Count)
system.cpu.statFuBusy::No_OpClass                   0      0.00%      0.00% # attempts to use FU when none available (Count)
system.cpu.statFuBusy::IntAlu                   29981     22.77%     22.77% # attempts to use FU when none available (Count)
system.cpu.statFuBusy::IntMult                      0      0.00%     22.77% # attempts to use FU when none available (Count)
system.cpu.statFuBusy::IntDiv                       0      0.00%     22.77% # attempts to use FU when none available (Count)
system.cpu.statFuBusy::FloatAdd                     0      0.00%     22.77% # attempts to use FU when none available (Count)
system.cpu.statFuBusy::FloatCmp                     0      0.00%     22.77% # attempts to use FU when none available (Count)
system.cpu.statFuBusy::FloatCvt                     0      0.00%     22.77% # attempts to use FU when none available (Count)
system.cpu.statFuBusy::FloatMult                    0      0.00%     22.77% # attempts to use FU when none available (Count)
system.cpu.statFuBusy::FloatMultAcc                 0      0.00%     22.77% # attempts to use FU when none available (Count)
system.cpu.statFuBusy::FloatDiv                     0      0.00%     22.77% # attempts to use FU when none available (Count)
system.cpu.statFuBusy::FloatMisc                    0      0.00%     22.77% # attempts to use FU when none available (Count)
system.cpu.statFuBusy::FloatSqrt                    0      0.00%     22.77% # attempts to use FU when none available (Count)
system.cpu.statFuBusy::SimdAdd                      0      0.00%     22.77% # attempts to use FU when none available (Count)
system.cpu.statFuBusy::SimdAddAcc                   0      0.00%     22.77% # attempts to use FU when none available (Count)
system.cpu.statFuBusy::SimdAlu                  28449     21.60%     44.37% # attempts to use FU when none available (Count)
system.cpu.statFuBusy::SimdCmp                      0      0.00%     44.37% # attempts to use FU when none available (Count)
system.cpu.statFuBusy::SimdCvt                  39805     30.23%     74.60% # attempts to use FU when none available (Count)
system.cpu.statFuBusy::SimdMisc                 33389     25.36%     99.96% # attempts to use FU when none available (Count)
system.cpu.statFuBusy::SimdMult                     0      0.00%     99.96% # attempts to use FU when none available (Count)
system.cpu.statFuBusy::SimdMultAcc                  0      0.00%     99.96% # attempts to use FU when none available (Count)
system.cpu.statFuBusy::SimdShift                    0      0.00%     99.96% # attempts to use FU when none available (Count)
system.cpu.statFuBusy::SimdShiftAcc                 0      0.00%     99.96% # attempts to use FU when none available (Count)
system.cpu.statFuBusy::SimdDiv                      0      0.00%     99.96% # attempts to use FU when none available (Count)
system.cpu.statFuBusy::SimdSqrt                     0      0.00%     99.96% # attempts to use FU when none available (Count)
system.cpu.statFuBusy::SimdFloatAdd                 0      0.00%     99.96% # attempts to use FU when none available (Count)
system.cpu.statFuBusy::SimdFloatAlu                 0      0.00%     99.96% # attempts to use FU when none available (Count)
system.cpu.statFuBusy::SimdFloatCmp                 0      0.00%     99.96% # attempts to use FU when none available (Count)
system.cpu.statFuBusy::SimdFloatCvt                 0      0.00%     99.96% # attempts to use FU when none available (Count)
system.cpu.statFuBusy::SimdFloatDiv                 0      0.00%     99.96% # attempts to use FU when none available (Count)
system.cpu.statFuBusy::SimdFloatMisc                0      0.00%     99.96% # attempts to use FU when none available (Count)
system.cpu.statFuBusy::SimdFloatMult                0      0.00%     99.96% # attempts to use FU when none available (Count)
system.cpu.statFuBusy::SimdFloatMultAcc             0      0.00%     99.96% # attempts to use FU when none available (Count)
system.cpu.statFuBusy::SimdFloatSqrt                0      0.00%     99.96% # attempts to use FU when none available (Count)
system.cpu.statFuBusy::SimdReduceAdd                0      0.00%     99.96% # attempts to use FU when none available (Count)
system.cpu.statFuBusy::SimdReduceAlu                0      0.00%     99.96% # attempts to use FU when none available (Count)
system.cpu.statFuBusy::SimdReduceCmp                0      0.00%     99.96% # attempts to use FU when none available (Count)
system.cpu.statFuBusy::SimdFloatReduceAdd            0      0.00%     99.96% # attempts to use FU when none available (Count)
system.cpu.statFuBusy::SimdFloatReduceCmp            0      0.00%     99.96% # attempts to use FU when none available (Count)
system.cpu.statFuBusy::SimdAes                      0      0.00%     99.96% # attempts to use FU when none available (Count)
system.cpu.statFuBusy::SimdAesMix                   0      0.00%     99.96% # attempts to use FU when none available (Count)
system.cpu.statFuBusy::SimdSha1Hash                 0      0.00%     99.96% # attempts to use FU when none available (Count)
system.cpu.statFuBusy::SimdSha1Hash2                0      0.00%     99.96% # attempts to use FU when none available (Count)
system.cpu.statFuBusy::SimdSha256Hash               0      0.00%     99.96% # attempts to use FU when none available (Count)
system.cpu.statFuBusy::SimdSha256Hash2              0      0.00%     99.96% # attempts to use FU when none available (Count)
system.cpu.statFuBusy::SimdShaSigma2                0      0.00%     99.96% # attempts to use FU when none available (Count)
system.cpu.statFuBusy::SimdShaSigma3                0      0.00%     99.96% # attempts to use FU when none available (Count)
system.cpu.statFuBusy::SimdPredAlu                  0      0.00%     99.96% # attempts to use FU when none available (Count)
system.cpu.statFuBusy::MemRead                     34      0.03%     99.98% # attempts to use FU when none available (Count)
system.cpu.statFuBusy::MemWrite                    13      0.01%     99.99% # attempts to use FU when none available (Count)
system.cpu.statFuBusy::FloatMemRead                 2      0.00%     99.99% # attempts to use FU when none available (Count)
system.cpu.statFuBusy::FloatMemWrite               10      0.01%    100.00% # attempts to use FU when none available (Count)
system.cpu.statFuBusy::IprAccess                    0      0.00%    100.00% # attempts to use FU when none available (Count)
system.cpu.statFuBusy::InstPrefetch                 0      0.00%    100.00% # attempts to use FU when none available (Count)
system.cpu.statIssuedInstType_0::No_OpClass          691      0.00%      0.00% # Number of instructions issued per FU type, per thread (Count)
system.cpu.statIssuedInstType_0::IntAlu      14022908     78.51%     78.51% # Number of instructions issued per FU type, per thread (Count)
system.cpu.statIssuedInstType_0::IntMult         1337      0.01%     78.52% # Number of instructions issued per FU type, per thread (Count)
system.cpu.statIssuedInstType_0::IntDiv            21      0.00%     78.52% # Number of instructions issued per FU type, per thread (Count)
system.cpu.statIssuedInstType_0::FloatAdd          145      0.00%     78.52% # Number of instructions issued per FU type, per thread (Count)
system.cpu.statIssuedInstType_0::FloatCmp            0      0.00%     78.52% # Number of instructions issued per FU type, per thread (Count)
system.cpu.statIssuedInstType_0::FloatCvt            0      0.00%     78.52% # Number of instructions issued per FU type, per thread (Count)
system.cpu.statIssuedInstType_0::FloatMult            0      0.00%     78.52% # Number of instructions issued per FU type, per thread (Count)
system.cpu.statIssuedInstType_0::FloatMultAcc            0      0.00%     78.52% # Number of instructions issued per FU type, per thread (Count)
system.cpu.statIssuedInstType_0::FloatDiv            0      0.00%     78.52% # Number of instructions issued per FU type, per thread (Count)
system.cpu.statIssuedInstType_0::FloatMisc            0      0.00%     78.52% # Number of instructions issued per FU type, per thread (Count)
system.cpu.statIssuedInstType_0::FloatSqrt            0      0.00%     78.52% # Number of instructions issued per FU type, per thread (Count)
system.cpu.statIssuedInstType_0::SimdAdd       499996      2.80%     81.32% # Number of instructions issued per FU type, per thread (Count)
system.cpu.statIssuedInstType_0::SimdAddAcc            0      0.00%     81.32% # Number of instructions issued per FU type, per thread (Count)
system.cpu.statIssuedInstType_0::SimdAlu       125172      0.70%     82.02% # Number of instructions issued per FU type, per thread (Count)
system.cpu.statIssuedInstType_0::SimdCmp            0      0.00%     82.02% # Number of instructions issued per FU type, per thread (Count)
system.cpu.statIssuedInstType_0::SimdCvt       125046      0.70%     82.72% # Number of instructions issued per FU type, per thread (Count)
system.cpu.statIssuedInstType_0::SimdMisc       750207      4.20%     86.92% # Number of instructions issued per FU type, per thread (Count)
system.cpu.statIssuedInstType_0::SimdMult            0      0.00%     86.92% # Number of instructions issued per FU type, per thread (Count)
system.cpu.statIssuedInstType_0::SimdMultAcc            0      0.00%     86.92% # Number of instructions issued per FU type, per thread (Count)
system.cpu.statIssuedInstType_0::SimdShift           11      0.00%     86.92% # Number of instructions issued per FU type, per thread (Count)
system.cpu.statIssuedInstType_0::SimdShiftAcc            0      0.00%     86.92% # Number of instructions issued per FU type, per thread (Count)
system.cpu.statIssuedInstType_0::SimdDiv            0      0.00%     86.92% # Number of instructions issued per FU type, per thread (Count)
system.cpu.statIssuedInstType_0::SimdSqrt            0      0.00%     86.92% # Number of instructions issued per FU type, per thread (Count)
system.cpu.statIssuedInstType_0::SimdFloatAdd            0      0.00%     86.92% # Number of instructions issued per FU type, per thread (Count)
system.cpu.statIssuedInstType_0::SimdFloatAlu            0      0.00%     86.92% # Number of instructions issued per FU type, per thread (Count)
system.cpu.statIssuedInstType_0::SimdFloatCmp            0      0.00%     86.92% # Number of instructions issued per FU type, per thread (Count)
system.cpu.statIssuedInstType_0::SimdFloatCvt            0      0.00%     86.92% # Number of instructions issued per FU type, per thread (Count)
system.cpu.statIssuedInstType_0::SimdFloatDiv            0      0.00%     86.92% # Number of instructions issued per FU type, per thread (Count)
system.cpu.statIssuedInstType_0::SimdFloatMisc            0      0.00%     86.92% # Number of instructions issued per FU type, per thread (Count)
system.cpu.statIssuedInstType_0::SimdFloatMult            0      0.00%     86.92% # Number of instructions issued per FU type, per thread (Count)
system.cpu.statIssuedInstType_0::SimdFloatMultAcc            0      0.00%     86.92% # Number of instructions issued per FU type, per thread (Count)
system.cpu.statIssuedInstType_0::SimdFloatSqrt            0      0.00%     86.92% # Number of instructions issued per FU type, per thread (Count)
system.cpu.statIssuedInstType_0::SimdReduceAdd            0      0.00%     86.92% # Number of instructions issued per FU type, per thread (Count)
system.cpu.statIssuedInstType_0::SimdReduceAlu            0      0.00%     86.92% # Number of instructions issued per FU type, per thread (Count)
system.cpu.statIssuedInstType_0::SimdReduceCmp            0      0.00%     86.92% # Number of instructions issued per FU type, per thread (Count)
system.cpu.statIssuedInstType_0::SimdFloatReduceAdd            0      0.00%     86.92% # Number of instructions issued per FU type, per thread (Count)
system.cpu.statIssuedInstType_0::SimdFloatReduceCmp            0      0.00%     86.92% # Number of instructions issued per FU type, per thread (Count)
system.cpu.statIssuedInstType_0::SimdAes            0      0.00%     86.92% # Number of instructions issued per FU type, per thread (Count)
system.cpu.statIssuedInstType_0::SimdAesMix            0      0.00%     86.92% # Number of instructions issued per FU type, per thread (Count)
system.cpu.statIssuedInstType_0::SimdSha1Hash            0      0.00%     86.92% # Number of instructions issued per FU type, per thread (Count)
system.cpu.statIssuedInstType_0::SimdSha1Hash2            0      0.00%     86.92% # Number of instructions issued per FU type, per thread (Count)
system.cpu.statIssuedInstType_0::SimdSha256Hash            0      0.00%     86.92% # Number of instructions issued per FU type, per thread (Count)
system.cpu.statIssuedInstType_0::SimdSha256Hash2            0      0.00%     86.92% # Number of instructions issued per FU type, per thread (Count)
system.cpu.statIssuedInstType_0::SimdShaSigma2            0      0.00%     86.92% # Number of instructions issued per FU type, per thread (Count)
system.cpu.statIssuedInstType_0::SimdShaSigma3            0      0.00%     86.92% # Number of instructions issued per FU type, per thread (Count)
system.cpu.statIssuedInstType_0::SimdPredAlu            0      0.00%     86.92% # Number of instructions issued per FU type, per thread (Count)
system.cpu.statIssuedInstType_0::MemRead         4454      0.02%     86.94% # Number of instructions issued per FU type, per thread (Count)
system.cpu.statIssuedInstType_0::MemWrite      2206739     12.35%     99.30% # Number of instructions issued per FU type, per thread (Count)
system.cpu.statIssuedInstType_0::FloatMemRead       125088      0.70%    100.00% # Number of instructions issued per FU type, per thread (Count)
system.cpu.statIssuedInstType_0::FloatMemWrite          528      0.00%    100.00% # Number of instructions issued per FU type, per thread (Count)
system.cpu.statIssuedInstType_0::IprAccess            0      0.00%    100.00% # Number of instructions issued per FU type, per thread (Count)
system.cpu.statIssuedInstType_0::InstPrefetch            0      0.00%    100.00% # Number of instructions issued per FU type, per thread (Count)
system.cpu.statIssuedInstType_0::total       17862343                       # Number of instructions issued per FU type, per thread (Count)
system.cpu.issueRate                         0.425118                       # Inst issue rate ((Count/Cycle))
system.cpu.fuBusy                              131683                       # FU busy when requested (Count)
system.cpu.fuBusyRate                        0.007372                       # FU busy rate (busy events/executed inst) ((Count/Count))
system.cpu.intInstQueueReads                 73752568                       # Number of integer instruction queue reads (Count)
system.cpu.intInstQueueWrites                15939902                       # Number of integer instruction queue writes (Count)
system.cpu.intInstQueueWakeupAccesses        15852023                       # Number of integer instruction queue wakeup accesses (Count)
system.cpu.fpInstQueueReads                   4104321                       # Number of floating instruction queue reads (Count)
system.cpu.fpInstQueueWrites                  2001666                       # Number of floating instruction queue writes (Count)
system.cpu.fpInstQueueWakeupAccesses          2001282                       # Number of floating instruction queue wakeup accesses (Count)
system.cpu.vecInstQueueReads                        0                       # Number of vector instruction queue reads (Count)
system.cpu.vecInstQueueWrites                       0                       # Number of vector instruction queue writes (Count)
system.cpu.vecInstQueueWakeupAccesses               0                       # Number of vector instruction queue wakeup accesses (Count)
system.cpu.intAluAccesses                    15890349                       # Number of integer alu accesses (Count)
system.cpu.fpAluAccesses                      2102986                       # Number of floating point alu accesses (Count)
system.cpu.vecAluAccesses                           0                       # Number of vector alu accesses (Count)
system.cpu.numInsts                          17861020                       # Number of executed instructions (Count)
system.cpu.numLoadInsts                        129287                       # Number of load instructions executed (Count)
system.cpu.numSquashedInsts                      1323                       # Number of squashed instructions skipped in execute (Count)
system.cpu.numSwp                                   0                       # Number of swp insts executed (Count)
system.cpu.numNop                                   0                       # Number of nop insts executed (Count)
system.cpu.numRefs                            2336454                       # Number of memory reference insts executed (Count)
system.cpu.numBranches                        2272535                       # Number of branches executed (Count)
system.cpu.numStoreInsts                      2207167                       # Number of stores executed (Count)
system.cpu.numRate                           0.425086                       # Inst execution rate ((Count/Cycle))
system.cpu.timesIdled                             278                       # Number of times that the entire CPU went into an idle state and unscheduled itself (Count)
system.cpu.idleCycles                           17015                       # Total number of cycles that the CPU has spent unscheduled due to idling (Cycle)
system.cpu.committedInsts                     9995995                       # Number of Instructions Simulated (Count)
system.cpu.committedOps                      17794319                       # Number of Ops (including micro ops) Simulated (Count)
system.cpu.cpi                               4.203422                       # CPI: Cycles Per Instruction ((Cycle/Count))
system.cpu.totalCpi                          4.203422                       # CPI: Total CPI of All Threads ((Cycle/Count))
system.cpu.ipc                               0.237901                       # IPC: Instructions Per Cycle ((Count/Cycle))
system.cpu.totalIpc                          0.237901                       # IPC: Total IPC of All Threads ((Count/Cycle))
system.cpu.intRegfileReads                   22748836                       # Number of integer regfile reads (Count)
system.cpu.intRegfileWrites                  11380731                       # Number of integer regfile writes (Count)
system.cpu.fpRegfileReads                     4376533                       # Number of floating regfile reads (Count)
system.cpu.fpRegfileWrites                    2000729                       # Number of floating regfile writes (Count)
system.cpu.ccRegfileReads                    11361644                       # number of cc regfile reads (Count)
system.cpu.ccRegfileWrites                    9087717                       # number of cc regfile writes (Count)
system.cpu.miscRegfileReads                   6883135                       # number of misc regfile reads (Count)
system.cpu.MemDepUnit__0.insertedLoads         129746                       # Number of loads inserted to the mem dependence unit. (Count)
system.cpu.MemDepUnit__0.insertedStores       2207735                       # Number of stores inserted to the mem dependence unit. (Count)
system.cpu.MemDepUnit__0.conflictingLoads           35                       # Number of conflicting loads. (Count)
system.cpu.MemDepUnit__0.conflictingStores           13                       # Number of conflicting stores. (Count)
system.cpu.MemDepUnit__1.insertedLoads              0                       # Number of loads inserted to the mem dependence unit. (Count)
system.cpu.MemDepUnit__1.insertedStores             0                       # Number of stores inserted to the mem dependence unit. (Count)
system.cpu.MemDepUnit__1.conflictingLoads            0                       # Number of conflicting loads. (Count)
system.cpu.MemDepUnit__1.conflictingStores            0                       # Number of conflicting stores. (Count)
system.cpu.MemDepUnit__2.insertedLoads              0                       # Number of loads inserted to the mem dependence unit. (Count)
system.cpu.MemDepUnit__2.insertedStores             0                       # Number of stores inserted to the mem dependence unit. (Count)
system.cpu.MemDepUnit__2.conflictingLoads            0                       # Number of conflicting loads. (Count)
system.cpu.MemDepUnit__2.conflictingStores            0                       # Number of conflicting stores. (Count)
system.cpu.MemDepUnit__3.insertedLoads              0                       # Number of loads inserted to the mem dependence unit. (Count)
system.cpu.MemDepUnit__3.insertedStores             0                       # Number of stores inserted to the mem dependence unit. (Count)
system.cpu.MemDepUnit__3.conflictingLoads            0                       # Number of conflicting loads. (Count)
system.cpu.MemDepUnit__3.conflictingStores            0                       # Number of conflicting stores. (Count)
system.cpu.branchPred.lookups                 2279535                       # Number of BP lookups (Count)
system.cpu.branchPred.condPredicted           2278256                       # Number of conditional branches predicted (Count)
system.cpu.branchPred.condIncorrect              1064                       # Number of conditional branches incorrect (Count)
system.cpu.branchPred.BTBLookups              2275189                       # Number of BTB lookups (Count)
system.cpu.branchPred.BTBHits                 2274380                       # Number of BTB hits (Count)
system.cpu.branchPred.BTBHitRatio            0.999644                       # BTB Hit Ratio (Ratio)
system.cpu.branchPred.RASUsed                     274                       # Number of times the RAS was used to get a target. (Count)
system.cpu.branchPred.RASIncorrect                  0                       # Number of incorrect RAS predictions. (Count)
system.cpu.branchPred.indirectLookups             371                       # Number of indirect predictor lookups. (Count)
system.cpu.branchPred.indirectHits                 16                       # Number of indirect target hits. (Count)
system.cpu.branchPred.indirectMisses              355                       # Number of indirect misses. (Count)
system.cpu.branchPred.indirectMispredicted           99                       # Number of mispredicted indirect branches. (Count)
system.cpu.commit.commitSquashedInsts           73853                       # The number of squashed insts skipped by commit (Count)
system.cpu.commit.commitNonSpecStalls              12                       # The number of times commit has been forced to stall to communicate backwards (Count)
system.cpu.commit.branchMispredicts               949                       # The number of times a branch was mispredicted (Count)
system.cpu.commit.numCommittedDist::samples     41990559                       # Number of insts commited each cycle (Count)
system.cpu.commit.numCommittedDist::mean     0.423770                       # Number of insts commited each cycle (Count)
system.cpu.commit.numCommittedDist::stdev     1.271030                       # Number of insts commited each cycle (Count)
system.cpu.commit.numCommittedDist::underflows            0      0.00%      0.00% # Number of insts commited each cycle (Count)
system.cpu.commit.numCommittedDist::0        36648355     87.28%     87.28% # Number of insts commited each cycle (Count)
system.cpu.commit.numCommittedDist::1          230580      0.55%     87.83% # Number of insts commited each cycle (Count)
system.cpu.commit.numCommittedDist::2         1938646      4.62%     92.44% # Number of insts commited each cycle (Count)
system.cpu.commit.numCommittedDist::3         1332512      3.17%     95.62% # Number of insts commited each cycle (Count)
system.cpu.commit.numCommittedDist::4          882913      2.10%     97.72% # Number of insts commited each cycle (Count)
system.cpu.commit.numCommittedDist::5          414832      0.99%     98.71% # Number of insts commited each cycle (Count)
system.cpu.commit.numCommittedDist::6           23913      0.06%     98.76% # Number of insts commited each cycle (Count)
system.cpu.commit.numCommittedDist::7          210843      0.50%     99.27% # Number of insts commited each cycle (Count)
system.cpu.commit.numCommittedDist::8          307965      0.73%    100.00% # Number of insts commited each cycle (Count)
system.cpu.commit.numCommittedDist::overflows            0      0.00%    100.00% # Number of insts commited each cycle (Count)
system.cpu.commit.numCommittedDist::min_value            0                       # Number of insts commited each cycle (Count)
system.cpu.commit.numCommittedDist::max_value            8                       # Number of insts commited each cycle (Count)
system.cpu.commit.numCommittedDist::total     41990559                       # Number of insts commited each cycle (Count)
system.cpu.commit.instsCommitted              9995995                       # Number of instructions committed (Count)
system.cpu.commit.opsCommitted               17794319                       # Number of ops (including micro ops) committed (Count)
system.cpu.commit.memRefs                     2327019                       # Number of memory references committed (Count)
system.cpu.commit.loads                        127545                       # Number of loads committed (Count)
system.cpu.commit.amos                              0                       # Number of atomic instructions committed (Count)
system.cpu.commit.membars                           8                       # Number of memory barriers committed (Count)
system.cpu.commit.branches                    2264231                       # Number of branches committed (Count)
system.cpu.commit.vectorInstructions                0                       # Number of committed Vector instructions. (Count)
system.cpu.commit.floating                    2001126                       # Number of committed floating point instructions. (Count)
system.cpu.commit.integer                    15918570                       # Number of committed integer instructions. (Count)
system.cpu.commit.functionCalls                   148                       # Number of function calls committed. (Count)
system.cpu.commit.committedInstType_0::No_OpClass          192      0.00%      0.00% # Class of committed instruction (Count)
system.cpu.commit.committedInstType_0::IntAlu     13965598     78.48%     78.48% # Class of committed instruction (Count)
system.cpu.commit.committedInstType_0::IntMult         1004      0.01%     78.49% # Class of committed instruction (Count)
system.cpu.commit.committedInstType_0::IntDiv           21      0.00%     78.49% # Class of committed instruction (Count)
system.cpu.commit.committedInstType_0::FloatAdd          135      0.00%     78.49% # Class of committed instruction (Count)
system.cpu.commit.committedInstType_0::FloatCmp            0      0.00%     78.49% # Class of committed instruction (Count)
system.cpu.commit.committedInstType_0::FloatCvt            0      0.00%     78.49% # Class of committed instruction (Count)
system.cpu.commit.committedInstType_0::FloatMult            0      0.00%     78.49% # Class of committed instruction (Count)
system.cpu.commit.committedInstType_0::FloatMultAcc            0      0.00%     78.49% # Class of committed instruction (Count)
system.cpu.commit.committedInstType_0::FloatDiv            0      0.00%     78.49% # Class of committed instruction (Count)
system.cpu.commit.committedInstType_0::FloatMisc            0      0.00%     78.49% # Class of committed instruction (Count)
system.cpu.commit.committedInstType_0::FloatSqrt            0      0.00%     78.49% # Class of committed instruction (Count)
system.cpu.commit.committedInstType_0::SimdAdd       499996      2.81%     81.30% # Class of committed instruction (Count)
system.cpu.commit.committedInstType_0::SimdAddAcc            0      0.00%     81.30% # Class of committed instruction (Count)
system.cpu.commit.committedInstType_0::SimdAlu       125100      0.70%     82.00% # Class of committed instruction (Count)
system.cpu.commit.committedInstType_0::SimdCmp            0      0.00%     82.00% # Class of committed instruction (Count)
system.cpu.commit.committedInstType_0::SimdCvt       125044      0.70%     82.71% # Class of committed instruction (Count)
system.cpu.commit.committedInstType_0::SimdMisc       750204      4.22%     86.92% # Class of committed instruction (Count)
system.cpu.commit.committedInstType_0::SimdMult            0      0.00%     86.92% # Class of committed instruction (Count)
system.cpu.commit.committedInstType_0::SimdMultAcc            0      0.00%     86.92% # Class of committed instruction (Count)
system.cpu.commit.committedInstType_0::SimdShift            6      0.00%     86.92% # Class of committed instruction (Count)
system.cpu.commit.committedInstType_0::SimdShiftAcc            0      0.00%     86.92% # Class of committed instruction (Count)
system.cpu.commit.committedInstType_0::SimdDiv            0      0.00%     86.92% # Class of committed instruction (Count)
system.cpu.commit.committedInstType_0::SimdSqrt            0      0.00%     86.92% # Class of committed instruction (Count)
system.cpu.commit.committedInstType_0::SimdFloatAdd            0      0.00%     86.92% # Class of committed instruction (Count)
system.cpu.commit.committedInstType_0::SimdFloatAlu            0      0.00%     86.92% # Class of committed instruction (Count)
system.cpu.commit.committedInstType_0::SimdFloatCmp            0      0.00%     86.92% # Class of committed instruction (Count)
system.cpu.commit.committedInstType_0::SimdFloatCvt            0      0.00%     86.92% # Class of committed instruction (Count)
system.cpu.commit.committedInstType_0::SimdFloatDiv            0      0.00%     86.92% # Class of committed instruction (Count)
system.cpu.commit.committedInstType_0::SimdFloatMisc            0      0.00%     86.92% # Class of committed instruction (Count)
system.cpu.commit.committedInstType_0::SimdFloatMult            0      0.00%     86.92% # Class of committed instruction (Count)
system.cpu.commit.committedInstType_0::SimdFloatMultAcc            0      0.00%     86.92% # Class of committed instruction (Count)
system.cpu.commit.committedInstType_0::SimdFloatSqrt            0      0.00%     86.92% # Class of committed instruction (Count)
system.cpu.commit.committedInstType_0::SimdReduceAdd            0      0.00%     86.92% # Class of committed instruction (Count)
system.cpu.commit.committedInstType_0::SimdReduceAlu            0      0.00%     86.92% # Class of committed instruction (Count)
system.cpu.commit.committedInstType_0::SimdReduceCmp            0      0.00%     86.92% # Class of committed instruction (Count)
system.cpu.commit.committedInstType_0::SimdFloatReduceAdd            0      0.00%     86.92% # Class of committed instruction (Count)
system.cpu.commit.committedInstType_0::SimdFloatReduceCmp            0      0.00%     86.92% # Class of committed instruction (Count)
system.cpu.commit.committedInstType_0::SimdAes            0      0.00%     86.92% # Class of committed instruction (Count)
system.cpu.commit.committedInstType_0::SimdAesMix            0      0.00%     86.92% # Class of committed instruction (Count)
system.cpu.commit.committedInstType_0::SimdSha1Hash            0      0.00%     86.92% # Class of committed instruction (Count)
system.cpu.commit.committedInstType_0::SimdSha1Hash2            0      0.00%     86.92% # Class of committed instruction (Count)
system.cpu.commit.committedInstType_0::SimdSha256Hash            0      0.00%     86.92% # Class of committed instruction (Count)
system.cpu.commit.committedInstType_0::SimdSha256Hash2            0      0.00%     86.92% # Class of committed instruction (Count)
system.cpu.commit.committedInstType_0::SimdShaSigma2            0      0.00%     86.92% # Class of committed instruction (Count)
system.cpu.commit.committedInstType_0::SimdShaSigma3            0      0.00%     86.92% # Class of committed instruction (Count)
system.cpu.commit.committedInstType_0::SimdPredAlu            0      0.00%     86.92% # Class of committed instruction (Count)
system.cpu.commit.committedInstType_0::MemRead         2499      0.01%     86.94% # Class of committed instruction (Count)
system.cpu.commit.committedInstType_0::MemWrite      2199016     12.36%     99.29% # Class of committed instruction (Count)
system.cpu.commit.committedInstType_0::FloatMemRead       125046      0.70%    100.00% # Class of committed instruction (Count)
system.cpu.commit.committedInstType_0::FloatMemWrite          458      0.00%    100.00% # Class of committed instruction (Count)
system.cpu.commit.committedInstType_0::IprAccess            0      0.00%    100.00% # Class of committed instruction (Count)
system.cpu.commit.committedInstType_0::InstPrefetch            0      0.00%    100.00% # Class of committed instruction (Count)
system.cpu.commit.committedInstType_0::total     17794319                       # Class of committed instruction (Count)
system.cpu.commit.commitEligibleSamples        307965                       # number cycles where commit BW limit reached (Cycle)
system.cpu.dcache.demandHits::cpu.data        1836740                       # number of demand (read+write) hits (Count)
system.cpu.dcache.demandHits::total           1836740                       # number of demand (read+write) hits (Count)
system.cpu.dcache.overallHits::cpu.data       1836740                       # number of overall hits (Count)
system.cpu.dcache.overallHits::total          1836740                       # number of overall hits (Count)
system.cpu.dcache.demandMisses::cpu.data       507325                       # number of demand (read+write) misses (Count)
system.cpu.dcache.demandMisses::total          507325                       # number of demand (read+write) misses (Count)
system.cpu.dcache.overallMisses::cpu.data       507325                       # number of overall misses (Count)
system.cpu.dcache.overallMisses::total         507325                       # number of overall misses (Count)
system.cpu.dcache.demandMissLatency::cpu.data  39192999999                       # number of demand (read+write) miss ticks (Tick)
system.cpu.dcache.demandMissLatency::total  39192999999                       # number of demand (read+write) miss ticks (Tick)
system.cpu.dcache.overallMissLatency::cpu.data  39192999999                       # number of overall miss ticks (Tick)
system.cpu.dcache.overallMissLatency::total  39192999999                       # number of overall miss ticks (Tick)
system.cpu.dcache.demandAccesses::cpu.data      2344065                       # number of demand (read+write) accesses (Count)
system.cpu.dcache.demandAccesses::total       2344065                       # number of demand (read+write) accesses (Count)
system.cpu.dcache.overallAccesses::cpu.data      2344065                       # number of overall (read+write) accesses (Count)
system.cpu.dcache.overallAccesses::total      2344065                       # number of overall (read+write) accesses (Count)
system.cpu.dcache.demandMissRate::cpu.data     0.216430                       # miss rate for demand accesses (Ratio)
system.cpu.dcache.demandMissRate::total      0.216430                       # miss rate for demand accesses (Ratio)
system.cpu.dcache.overallMissRate::cpu.data     0.216430                       # miss rate for overall accesses (Ratio)
system.cpu.dcache.overallMissRate::total     0.216430                       # miss rate for overall accesses (Ratio)
system.cpu.dcache.demandAvgMissLatency::cpu.data 77254.225593                       # average overall miss latency ((Cycle/Count))
system.cpu.dcache.demandAvgMissLatency::total 77254.225593                       # average overall miss latency ((Cycle/Count))
system.cpu.dcache.overallAvgMissLatency::cpu.data 77254.225593                       # average overall miss latency ((Cycle/Count))
system.cpu.dcache.overallAvgMissLatency::total 77254.225593                       # average overall miss latency ((Cycle/Count))
system.cpu.dcache.blockedCycles::no_mshrs         1294                       # number of cycles access was blocked (Cycle)
system.cpu.dcache.blockedCycles::no_targets            0                       # number of cycles access was blocked (Cycle)
system.cpu.dcache.blockedCauses::no_mshrs           50                       # number of times access was blocked (Count)
system.cpu.dcache.blockedCauses::no_targets            0                       # number of times access was blocked (Count)
system.cpu.dcache.avgBlocked::no_mshrs      25.880000                       # average number of cycles each access was blocked ((Cycle/Count))
system.cpu.dcache.avgBlocked::no_targets          nan                       # average number of cycles each access was blocked ((Cycle/Count))
system.cpu.dcache.writebacks::writebacks       768658                       # number of writebacks (Count)
system.cpu.dcache.writebacks::total            768658                       # number of writebacks (Count)
system.cpu.dcache.demandMshrHits::cpu.data       119713                       # number of demand (read+write) MSHR hits (Count)
system.cpu.dcache.demandMshrHits::total        119713                       # number of demand (read+write) MSHR hits (Count)
system.cpu.dcache.overallMshrHits::cpu.data       119713                       # number of overall MSHR hits (Count)
system.cpu.dcache.overallMshrHits::total       119713                       # number of overall MSHR hits (Count)
system.cpu.dcache.demandMshrMisses::cpu.data       387612                       # number of demand (read+write) MSHR misses (Count)
system.cpu.dcache.demandMshrMisses::total       387612                       # number of demand (read+write) MSHR misses (Count)
system.cpu.dcache.overallMshrMisses::cpu.data       387612                       # number of overall MSHR misses (Count)
system.cpu.dcache.overallMshrMisses::cpu.dcache.prefetcher       537444                       # number of overall MSHR misses (Count)
system.cpu.dcache.overallMshrMisses::total       925056                       # number of overall MSHR misses (Count)
system.cpu.dcache.demandMshrMissLatency::cpu.data  31584747999                       # number of demand (read+write) MSHR miss ticks (Tick)
system.cpu.dcache.demandMshrMissLatency::total  31584747999                       # number of demand (read+write) MSHR miss ticks (Tick)
system.cpu.dcache.overallMshrMissLatency::cpu.data  31584747999                       # number of overall MSHR miss ticks (Tick)
system.cpu.dcache.overallMshrMissLatency::cpu.dcache.prefetcher  39669464373                       # number of overall MSHR miss ticks (Tick)
system.cpu.dcache.overallMshrMissLatency::total  71254212372                       # number of overall MSHR miss ticks (Tick)
system.cpu.dcache.demandMshrMissRate::cpu.data     0.165359                       # mshr miss ratio for demand accesses (Ratio)
system.cpu.dcache.demandMshrMissRate::total     0.165359                       # mshr miss ratio for demand accesses (Ratio)
system.cpu.dcache.overallMshrMissRate::cpu.data     0.165359                       # mshr miss ratio for overall accesses (Ratio)
system.cpu.dcache.overallMshrMissRate::cpu.dcache.prefetcher          inf                       # mshr miss ratio for overall accesses (Ratio)
system.cpu.dcache.overallMshrMissRate::total     0.394638                       # mshr miss ratio for overall accesses (Ratio)
system.cpu.dcache.demandAvgMshrMissLatency::cpu.data 81485.475163                       # average overall mshr miss latency ((Cycle/Count))
system.cpu.dcache.demandAvgMshrMissLatency::total 81485.475163                       # average overall mshr miss latency ((Cycle/Count))
system.cpu.dcache.overallAvgMshrMissLatency::cpu.data 81485.475163                       # average overall mshr miss latency ((Cycle/Count))
system.cpu.dcache.overallAvgMshrMissLatency::cpu.dcache.prefetcher 73811.344760                       # average overall mshr miss latency ((Cycle/Count))
system.cpu.dcache.overallAvgMshrMissLatency::total 77026.917691                       # average overall mshr miss latency ((Cycle/Count))
system.cpu.dcache.replacements                 924032                       # number of replacements (Count)
system.cpu.dcache.HardPFReq.mshrMisses::cpu.dcache.prefetcher       537444                       # number of HardPFReq MSHR misses (Count)
system.cpu.dcache.HardPFReq.mshrMisses::total       537444                       # number of HardPFReq MSHR misses (Count)
system.cpu.dcache.HardPFReq.mshrMissLatency::cpu.dcache.prefetcher  39669464373                       # number of HardPFReq MSHR miss ticks (Tick)
system.cpu.dcache.HardPFReq.mshrMissLatency::total  39669464373                       # number of HardPFReq MSHR miss ticks (Tick)
system.cpu.dcache.HardPFReq.mshrMissRate::cpu.dcache.prefetcher          inf                       # mshr miss rate for HardPFReq accesses (Ratio)
system.cpu.dcache.HardPFReq.mshrMissRate::total          inf                       # mshr miss rate for HardPFReq accesses (Ratio)
system.cpu.dcache.HardPFReq.avgMshrMissLatency::cpu.dcache.prefetcher 73811.344760                       # average HardPFReq mshr miss latency ((Tick/Count))
system.cpu.dcache.HardPFReq.avgMshrMissLatency::total 73811.344760                       # average HardPFReq mshr miss latency ((Tick/Count))
system.cpu.dcache.ReadReq.hits::cpu.data       114606                       # number of ReadReq hits (Count)
system.cpu.dcache.ReadReq.hits::total          114606                       # number of ReadReq hits (Count)
system.cpu.dcache.ReadReq.misses::cpu.data        29984                       # number of ReadReq misses (Count)
system.cpu.dcache.ReadReq.misses::total         29984                       # number of ReadReq misses (Count)
system.cpu.dcache.ReadReq.missLatency::cpu.data   1498688000                       # number of ReadReq miss ticks (Tick)
system.cpu.dcache.ReadReq.missLatency::total   1498688000                       # number of ReadReq miss ticks (Tick)
system.cpu.dcache.ReadReq.accesses::cpu.data       144590                       # number of ReadReq accesses(hits+misses) (Count)
system.cpu.dcache.ReadReq.accesses::total       144590                       # number of ReadReq accesses(hits+misses) (Count)
system.cpu.dcache.ReadReq.missRate::cpu.data     0.207373                       # miss rate for ReadReq accesses (Ratio)
system.cpu.dcache.ReadReq.missRate::total     0.207373                       # miss rate for ReadReq accesses (Ratio)
system.cpu.dcache.ReadReq.avgMissLatency::cpu.data 49982.924226                       # average ReadReq miss latency ((Tick/Count))
system.cpu.dcache.ReadReq.avgMissLatency::total 49982.924226                       # average ReadReq miss latency ((Tick/Count))
system.cpu.dcache.ReadReq.mshrHits::cpu.data        24436                       # number of ReadReq MSHR hits (Count)
system.cpu.dcache.ReadReq.mshrHits::total        24436                       # number of ReadReq MSHR hits (Count)
system.cpu.dcache.ReadReq.mshrMisses::cpu.data         5548                       # number of ReadReq MSHR misses (Count)
system.cpu.dcache.ReadReq.mshrMisses::total         5548                       # number of ReadReq MSHR misses (Count)
system.cpu.dcache.ReadReq.mshrMissLatency::cpu.data    328660000                       # number of ReadReq MSHR miss ticks (Tick)
system.cpu.dcache.ReadReq.mshrMissLatency::total    328660000                       # number of ReadReq MSHR miss ticks (Tick)
system.cpu.dcache.ReadReq.mshrMissRate::cpu.data     0.038371                       # mshr miss rate for ReadReq accesses (Ratio)
system.cpu.dcache.ReadReq.mshrMissRate::total     0.038371                       # mshr miss rate for ReadReq accesses (Ratio)
system.cpu.dcache.ReadReq.avgMshrMissLatency::cpu.data 59239.365537                       # average ReadReq mshr miss latency ((Tick/Count))
system.cpu.dcache.ReadReq.avgMshrMissLatency::total 59239.365537                       # average ReadReq mshr miss latency ((Tick/Count))
system.cpu.dcache.WriteReq.hits::cpu.data      1722134                       # number of WriteReq hits (Count)
system.cpu.dcache.WriteReq.hits::total        1722134                       # number of WriteReq hits (Count)
system.cpu.dcache.WriteReq.misses::cpu.data       477341                       # number of WriteReq misses (Count)
system.cpu.dcache.WriteReq.misses::total       477341                       # number of WriteReq misses (Count)
system.cpu.dcache.WriteReq.missLatency::cpu.data  37694311999                       # number of WriteReq miss ticks (Tick)
system.cpu.dcache.WriteReq.missLatency::total  37694311999                       # number of WriteReq miss ticks (Tick)
system.cpu.dcache.WriteReq.accesses::cpu.data      2199475                       # number of WriteReq accesses(hits+misses) (Count)
system.cpu.dcache.WriteReq.accesses::total      2199475                       # number of WriteReq accesses(hits+misses) (Count)
system.cpu.dcache.WriteReq.missRate::cpu.data     0.217025                       # miss rate for WriteReq accesses (Ratio)
system.cpu.dcache.WriteReq.missRate::total     0.217025                       # miss rate for WriteReq accesses (Ratio)
system.cpu.dcache.WriteReq.avgMissLatency::cpu.data 78967.262395                       # average WriteReq miss latency ((Tick/Count))
system.cpu.dcache.WriteReq.avgMissLatency::total 78967.262395                       # average WriteReq miss latency ((Tick/Count))
system.cpu.dcache.WriteReq.mshrHits::cpu.data        95277                       # number of WriteReq MSHR hits (Count)
system.cpu.dcache.WriteReq.mshrHits::total        95277                       # number of WriteReq MSHR hits (Count)
system.cpu.dcache.WriteReq.mshrMisses::cpu.data       382064                       # number of WriteReq MSHR misses (Count)
system.cpu.dcache.WriteReq.mshrMisses::total       382064                       # number of WriteReq MSHR misses (Count)
system.cpu.dcache.WriteReq.mshrMissLatency::cpu.data  31256087999                       # number of WriteReq MSHR miss ticks (Tick)
system.cpu.dcache.WriteReq.mshrMissLatency::total  31256087999                       # number of WriteReq MSHR miss ticks (Tick)
system.cpu.dcache.WriteReq.mshrMissRate::cpu.data     0.173707                       # mshr miss rate for WriteReq accesses (Ratio)
system.cpu.dcache.WriteReq.mshrMissRate::total     0.173707                       # mshr miss rate for WriteReq accesses (Ratio)
system.cpu.dcache.WriteReq.avgMshrMissLatency::cpu.data 81808.513754                       # average WriteReq mshr miss latency ((Tick/Count))
system.cpu.dcache.WriteReq.avgMshrMissLatency::total 81808.513754                       # average WriteReq mshr miss latency ((Tick/Count))
system.cpu.dcache.power_state.pwrStateResidencyTicks::UNDEFINED  42017385000                       # Cumulative time (in ticks) in various power states (Tick)
system.cpu.dcache.prefetcher.demandMshrMisses       387612                       # demands not covered by prefetchs (Count)
system.cpu.dcache.prefetcher.pfIssued          685934                       # number of hwpf issued (Count)
system.cpu.dcache.prefetcher.pfUnused          216798                       # number of HardPF blocks evicted w/o reference (Count)
system.cpu.dcache.prefetcher.pfUseful          320625                       # number of useful prefetch (Count)
system.cpu.dcache.prefetcher.pfUsefulButMiss            0                       # number of hit on prefetch but cache block is not in an usable state (Count)
system.cpu.dcache.prefetcher.accuracy        0.467428                       # accuracy of the prefetcher (Count)
system.cpu.dcache.prefetcher.coverage        0.452709                       # coverage brought by this prefetcher (Count)
system.cpu.dcache.prefetcher.pfHitInCache       143745                       # number of prefetches hitting in cache (Count)
system.cpu.dcache.prefetcher.pfHitInMSHR         4745                       # number of prefetches hitting in a MSHR (Count)
system.cpu.dcache.prefetcher.pfHitInWB              0                       # number of prefetches hit in the Write Buffer (Count)
system.cpu.dcache.prefetcher.pfLate            148490                       # number of late prefetches (hitting in cache, MSHR or WB) (Count)
system.cpu.dcache.prefetcher.pfIdentified      1039611                       # number of prefetch candidates identified (Count)
system.cpu.dcache.prefetcher.pfBufferHit       265637                       # number of redundant prefetches already in prefetch queue (Count)
system.cpu.dcache.prefetcher.pfInCache              0                       # number of redundant prefetches already in cache/mshr dropped (Count)
system.cpu.dcache.prefetcher.pfRemovedDemand        55879                       # number of prefetches dropped due to a demand for the same address (Count)
system.cpu.dcache.prefetcher.pfRemovedFull            0                       # number of prefetches dropped due to prefetch queue size (Count)
system.cpu.dcache.prefetcher.pfSpanPage        141714                       # number of prefetches that crossed the page (Count)
system.cpu.dcache.prefetcher.ampm.power_state.pwrStateResidencyTicks::UNDEFINED  42017385000                       # Cumulative time (in ticks) in various power states (Tick)
system.cpu.dcache.prefetcher.power_state.pwrStateResidencyTicks::UNDEFINED  42017385000                       # Cumulative time (in ticks) in various power states (Tick)
system.cpu.dcache.tags.tagsInUse          1022.578442                       # Average ticks per tags in use ((Tick/Count))
system.cpu.dcache.tags.totalRefs              2761796                       # Total number of references to valid blocks. (Count)
system.cpu.dcache.tags.sampledRefs             925056                       # Sample count of references to valid blocks. (Count)
system.cpu.dcache.tags.avgRefs               2.985545                       # Average number of references to valid blocks. ((Count/Count))
system.cpu.dcache.tags.warmupTick              222000                       # The tick when the warmup percentage was hit. (Tick)
system.cpu.dcache.tags.occupancies::cpu.data   475.755554                       # Average occupied blocks per tick, per requestor ((Count/Tick))
system.cpu.dcache.tags.occupancies::cpu.dcache.prefetcher   546.822888                       # Average occupied blocks per tick, per requestor ((Count/Tick))
system.cpu.dcache.tags.avgOccs::cpu.data     0.464605                       # Average percentage of cache occupancy ((Ratio/Tick))
system.cpu.dcache.tags.avgOccs::cpu.dcache.prefetcher     0.534007                       # Average percentage of cache occupancy ((Ratio/Tick))
system.cpu.dcache.tags.avgOccs::total        0.998612                       # Average percentage of cache occupancy ((Ratio/Tick))
system.cpu.dcache.tags.occupanciesTaskId::1022          674                       # Occupied blocks per task id (Count)
system.cpu.dcache.tags.occupanciesTaskId::1024          350                       # Occupied blocks per task id (Count)
system.cpu.dcache.tags.ageTaskId_1022::0           98                       # Occupied blocks per task id, per block age (Count)
system.cpu.dcache.tags.ageTaskId_1022::1          576                       # Occupied blocks per task id, per block age (Count)
system.cpu.dcache.tags.ageTaskId_1024::0           65                       # Occupied blocks per task id, per block age (Count)
system.cpu.dcache.tags.ageTaskId_1024::1          285                       # Occupied blocks per task id, per block age (Count)
system.cpu.dcache.tags.ratioOccsTaskId::1022     0.658203                       # Ratio of occupied blocks and all blocks, per task id (Ratio)
system.cpu.dcache.tags.ratioOccsTaskId::1024     0.341797                       # Ratio of occupied blocks and all blocks, per task id (Ratio)
system.cpu.dcache.tags.tagAccesses            5613186                       # Number of tag accesses (Count)
system.cpu.dcache.tags.dataAccesses           5613186                       # Number of data accesses (Count)
system.cpu.dcache.tags.power_state.pwrStateResidencyTicks::UNDEFINED  42017385000                       # Cumulative time (in ticks) in various power states (Tick)
system.cpu.decode.idleCycles                   802962                       # Number of cycles decode is idle (Cycle)
system.cpu.decode.blockedCycles              38834881                       # Number of cycles decode is blocked (Cycle)
system.cpu.decode.runCycles                    861326                       # Number of cycles decode is running (Cycle)
system.cpu.decode.unblockCycles               1499985                       # Number of cycles decode is unblocking (Cycle)
system.cpu.decode.squashCycles                   1217                       # Number of cycles decode is squashing (Cycle)
system.cpu.decode.branchResolved              2271183                       # Number of times decode resolved a branch (Count)
system.cpu.decode.branchMispred                   236                       # Number of times decode detected a branch misprediction (Count)
system.cpu.decode.decodedInsts               17880391                       # Number of instructions handled by decode (Count)
system.cpu.decode.squashedInsts                  1075                       # Number of squashed instructions handled by decode (Count)
system.cpu.dtb_walker_cache.blockedCycles::no_mshrs            0                       # number of cycles access was blocked (Cycle)
system.cpu.dtb_walker_cache.blockedCycles::no_targets            0                       # number of cycles access was blocked (Cycle)
system.cpu.dtb_walker_cache.blockedCauses::no_mshrs            0                       # number of times access was blocked (Count)
system.cpu.dtb_walker_cache.blockedCauses::no_targets            0                       # number of times access was blocked (Count)
system.cpu.dtb_walker_cache.avgBlocked::no_mshrs          nan                       # average number of cycles each access was blocked ((Cycle/Count))
system.cpu.dtb_walker_cache.avgBlocked::no_targets          nan                       # average number of cycles each access was blocked ((Cycle/Count))
system.cpu.dtb_walker_cache.replacements            0                       # number of replacements (Count)
system.cpu.dtb_walker_cache.power_state.pwrStateResidencyTicks::UNDEFINED  42017385000                       # Cumulative time (in ticks) in various power states (Tick)
system.cpu.dtb_walker_cache.tags.tagsInUse            0                       # Average ticks per tags in use ((Tick/Count))
system.cpu.dtb_walker_cache.tags.totalRefs            0                       # Total number of references to valid blocks. (Count)
system.cpu.dtb_walker_cache.tags.sampledRefs            0                       # Sample count of references to valid blocks. (Count)
system.cpu.dtb_walker_cache.tags.avgRefs          nan                       # Average number of references to valid blocks. ((Count/Count))
system.cpu.dtb_walker_cache.tags.warmupTick            0                       # The tick when the warmup percentage was hit. (Tick)
system.cpu.dtb_walker_cache.tags.tagAccesses            0                       # Number of tag accesses (Count)
system.cpu.dtb_walker_cache.tags.dataAccesses            0                       # Number of data accesses (Count)
system.cpu.dtb_walker_cache.tags.power_state.pwrStateResidencyTicks::UNDEFINED  42017385000                       # Cumulative time (in ticks) in various power states (Tick)
system.cpu.fetch.icacheStallCycles             201013                       # Number of cycles fetch is stalled on an Icache miss (Cycle)
system.cpu.fetch.insts                       10059777                       # Number of instructions fetch has processed (Count)
system.cpu.fetch.branches                     2279535                       # Number of branches that fetch encountered (Count)
system.cpu.fetch.predictedBranches            2274670                       # Number of branches that fetch has predicted taken (Count)
system.cpu.fetch.cycles                      41797118                       # Number of cycles fetch has run and was not squashing or blocked (Cycle)
system.cpu.fetch.squashCycles                    2872                       # Number of cycles fetch has spent squashing (Cycle)
system.cpu.fetch.miscStallCycles                  120                       # Number of cycles fetch has spent waiting on interrupts, or bad addresses, or out of MSHRs (Cycle)
system.cpu.fetch.pendingTrapStallCycles           681                       # Number of stall cycles due to pending traps (Cycle)
system.cpu.fetch.pendingQuiesceStallCycles            1                       # Number of stall cycles due to pending quiesce instructions (Cycle)
system.cpu.fetch.icacheWaitRetryStallCycles            2                       # Number of stall cycles due to full MSHR (Cycle)
system.cpu.fetch.cacheLines                    190304                       # Number of cache lines fetched (Count)
system.cpu.fetch.icacheSquashes                   341                       # Number of outstanding Icache misses that were squashed (Count)
system.cpu.fetch.nisnDist::samples           42000371                       # Number of instructions fetched each cycle (Total) (Count)
system.cpu.fetch.nisnDist::mean              0.426405                       # Number of instructions fetched each cycle (Total) (Count)
system.cpu.fetch.nisnDist::stdev             1.586340                       # Number of instructions fetched each cycle (Total) (Count)
system.cpu.fetch.nisnDist::underflows               0      0.00%      0.00% # Number of instructions fetched each cycle (Total) (Count)
system.cpu.fetch.nisnDist::0                 38620674     91.95%     91.95% # Number of instructions fetched each cycle (Total) (Count)
system.cpu.fetch.nisnDist::1                   427807      1.02%     92.97% # Number of instructions fetched each cycle (Total) (Count)
system.cpu.fetch.nisnDist::2                   236213      0.56%     93.53% # Number of instructions fetched each cycle (Total) (Count)
system.cpu.fetch.nisnDist::3                   247557      0.59%     94.12% # Number of instructions fetched each cycle (Total) (Count)
system.cpu.fetch.nisnDist::4                   179605      0.43%     94.55% # Number of instructions fetched each cycle (Total) (Count)
system.cpu.fetch.nisnDist::5                   173781      0.41%     94.96% # Number of instructions fetched each cycle (Total) (Count)
system.cpu.fetch.nisnDist::6                   375751      0.89%     95.86% # Number of instructions fetched each cycle (Total) (Count)
system.cpu.fetch.nisnDist::7                  1487425      3.54%     99.40% # Number of instructions fetched each cycle (Total) (Count)
system.cpu.fetch.nisnDist::8                   251558      0.60%    100.00% # Number of instructions fetched each cycle (Total) (Count)
system.cpu.fetch.nisnDist::overflows                0      0.00%    100.00% # Number of instructions fetched each cycle (Total) (Count)
system.cpu.fetch.nisnDist::min_value                0                       # Number of instructions fetched each cycle (Total) (Count)
system.cpu.fetch.nisnDist::max_value                8                       # Number of instructions fetched each cycle (Total) (Count)
system.cpu.fetch.nisnDist::total             42000371                       # Number of instructions fetched each cycle (Total) (Count)
system.cpu.fetch.branchRate                  0.054252                       # Number of branch fetches per cycle (Ratio)
system.cpu.fetch.rate                        0.239419                       # Number of inst fetches per cycle ((Count/Cycle))
system.cpu.icache.demandHits::cpu.inst         189713                       # number of demand (read+write) hits (Count)
system.cpu.icache.demandHits::total            189713                       # number of demand (read+write) hits (Count)
system.cpu.icache.overallHits::cpu.inst        189713                       # number of overall hits (Count)
system.cpu.icache.overallHits::total           189713                       # number of overall hits (Count)
system.cpu.icache.demandMisses::cpu.inst          590                       # number of demand (read+write) misses (Count)
system.cpu.icache.demandMisses::total             590                       # number of demand (read+write) misses (Count)
system.cpu.icache.overallMisses::cpu.inst          590                       # number of overall misses (Count)
system.cpu.icache.overallMisses::total            590                       # number of overall misses (Count)
system.cpu.icache.demandMissLatency::cpu.inst     46108000                       # number of demand (read+write) miss ticks (Tick)
system.cpu.icache.demandMissLatency::total     46108000                       # number of demand (read+write) miss ticks (Tick)
system.cpu.icache.overallMissLatency::cpu.inst     46108000                       # number of overall miss ticks (Tick)
system.cpu.icache.overallMissLatency::total     46108000                       # number of overall miss ticks (Tick)
system.cpu.icache.demandAccesses::cpu.inst       190303                       # number of demand (read+write) accesses (Count)
system.cpu.icache.demandAccesses::total        190303                       # number of demand (read+write) accesses (Count)
system.cpu.icache.overallAccesses::cpu.inst       190303                       # number of overall (read+write) accesses (Count)
system.cpu.icache.overallAccesses::total       190303                       # number of overall (read+write) accesses (Count)
system.cpu.icache.demandMissRate::cpu.inst     0.003100                       # miss rate for demand accesses (Ratio)
system.cpu.icache.demandMissRate::total      0.003100                       # miss rate for demand accesses (Ratio)
system.cpu.icache.overallMissRate::cpu.inst     0.003100                       # miss rate for overall accesses (Ratio)
system.cpu.icache.overallMissRate::total     0.003100                       # miss rate for overall accesses (Ratio)
system.cpu.icache.demandAvgMissLatency::cpu.inst 78149.152542                       # average overall miss latency ((Cycle/Count))
system.cpu.icache.demandAvgMissLatency::total 78149.152542                       # average overall miss latency ((Cycle/Count))
system.cpu.icache.overallAvgMissLatency::cpu.inst 78149.152542                       # average overall miss latency ((Cycle/Count))
system.cpu.icache.overallAvgMissLatency::total 78149.152542                       # average overall miss latency ((Cycle/Count))
system.cpu.icache.blockedCycles::no_mshrs           33                       # number of cycles access was blocked (Cycle)
system.cpu.icache.blockedCycles::no_targets            0                       # number of cycles access was blocked (Cycle)
system.cpu.icache.blockedCauses::no_mshrs            3                       # number of times access was blocked (Count)
system.cpu.icache.blockedCauses::no_targets            0                       # number of times access was blocked (Count)
system.cpu.icache.avgBlocked::no_mshrs             11                       # average number of cycles each access was blocked ((Cycle/Count))
system.cpu.icache.avgBlocked::no_targets          nan                       # average number of cycles each access was blocked ((Cycle/Count))
system.cpu.icache.writebacks::writebacks           18                       # number of writebacks (Count)
system.cpu.icache.writebacks::total                18                       # number of writebacks (Count)
system.cpu.icache.demandMshrHits::cpu.inst          112                       # number of demand (read+write) MSHR hits (Count)
system.cpu.icache.demandMshrHits::total           112                       # number of demand (read+write) MSHR hits (Count)
system.cpu.icache.overallMshrHits::cpu.inst          112                       # number of overall MSHR hits (Count)
system.cpu.icache.overallMshrHits::total          112                       # number of overall MSHR hits (Count)
system.cpu.icache.demandMshrMisses::cpu.inst          478                       # number of demand (read+write) MSHR misses (Count)
system.cpu.icache.demandMshrMisses::total          478                       # number of demand (read+write) MSHR misses (Count)
system.cpu.icache.overallMshrMisses::cpu.inst          478                       # number of overall MSHR misses (Count)
system.cpu.icache.overallMshrMisses::total          478                       # number of overall MSHR misses (Count)
system.cpu.icache.demandMshrMissLatency::cpu.inst     38647000                       # number of demand (read+write) MSHR miss ticks (Tick)
system.cpu.icache.demandMshrMissLatency::total     38647000                       # number of demand (read+write) MSHR miss ticks (Tick)
system.cpu.icache.overallMshrMissLatency::cpu.inst     38647000                       # number of overall MSHR miss ticks (Tick)
system.cpu.icache.overallMshrMissLatency::total     38647000                       # number of overall MSHR miss ticks (Tick)
system.cpu.icache.demandMshrMissRate::cpu.inst     0.002512                       # mshr miss ratio for demand accesses (Ratio)
system.cpu.icache.demandMshrMissRate::total     0.002512                       # mshr miss ratio for demand accesses (Ratio)
system.cpu.icache.overallMshrMissRate::cpu.inst     0.002512                       # mshr miss ratio for overall accesses (Ratio)
system.cpu.icache.overallMshrMissRate::total     0.002512                       # mshr miss ratio for overall accesses (Ratio)
system.cpu.icache.demandAvgMshrMissLatency::cpu.inst 80851.464435                       # average overall mshr miss latency ((Cycle/Count))
system.cpu.icache.demandAvgMshrMissLatency::total 80851.464435                       # average overall mshr miss latency ((Cycle/Count))
system.cpu.icache.overallAvgMshrMissLatency::cpu.inst 80851.464435                       # average overall mshr miss latency ((Cycle/Count))
system.cpu.icache.overallAvgMshrMissLatency::total 80851.464435                       # average overall mshr miss latency ((Cycle/Count))
system.cpu.icache.replacements                     18                       # number of replacements (Count)
system.cpu.icache.ReadReq.hits::cpu.inst       189713                       # number of ReadReq hits (Count)
system.cpu.icache.ReadReq.hits::total          189713                       # number of ReadReq hits (Count)
system.cpu.icache.ReadReq.misses::cpu.inst          590                       # number of ReadReq misses (Count)
system.cpu.icache.ReadReq.misses::total           590                       # number of ReadReq misses (Count)
system.cpu.icache.ReadReq.missLatency::cpu.inst     46108000                       # number of ReadReq miss ticks (Tick)
system.cpu.icache.ReadReq.missLatency::total     46108000                       # number of ReadReq miss ticks (Tick)
system.cpu.icache.ReadReq.accesses::cpu.inst       190303                       # number of ReadReq accesses(hits+misses) (Count)
system.cpu.icache.ReadReq.accesses::total       190303                       # number of ReadReq accesses(hits+misses) (Count)
system.cpu.icache.ReadReq.missRate::cpu.inst     0.003100                       # miss rate for ReadReq accesses (Ratio)
system.cpu.icache.ReadReq.missRate::total     0.003100                       # miss rate for ReadReq accesses (Ratio)
system.cpu.icache.ReadReq.avgMissLatency::cpu.inst 78149.152542                       # average ReadReq miss latency ((Tick/Count))
system.cpu.icache.ReadReq.avgMissLatency::total 78149.152542                       # average ReadReq miss latency ((Tick/Count))
system.cpu.icache.ReadReq.mshrHits::cpu.inst          112                       # number of ReadReq MSHR hits (Count)
system.cpu.icache.ReadReq.mshrHits::total          112                       # number of ReadReq MSHR hits (Count)
system.cpu.icache.ReadReq.mshrMisses::cpu.inst          478                       # number of ReadReq MSHR misses (Count)
system.cpu.icache.ReadReq.mshrMisses::total          478                       # number of ReadReq MSHR misses (Count)
system.cpu.icache.ReadReq.mshrMissLatency::cpu.inst     38647000                       # number of ReadReq MSHR miss ticks (Tick)
system.cpu.icache.ReadReq.mshrMissLatency::total     38647000                       # number of ReadReq MSHR miss ticks (Tick)
system.cpu.icache.ReadReq.mshrMissRate::cpu.inst     0.002512                       # mshr miss rate for ReadReq accesses (Ratio)
system.cpu.icache.ReadReq.mshrMissRate::total     0.002512                       # mshr miss rate for ReadReq accesses (Ratio)
system.cpu.icache.ReadReq.avgMshrMissLatency::cpu.inst 80851.464435                       # average ReadReq mshr miss latency ((Tick/Count))
system.cpu.icache.ReadReq.avgMshrMissLatency::total 80851.464435                       # average ReadReq mshr miss latency ((Tick/Count))
system.cpu.icache.power_state.pwrStateResidencyTicks::UNDEFINED  42017385000                       # Cumulative time (in ticks) in various power states (Tick)
system.cpu.icache.tags.tagsInUse           418.805366                       # Average ticks per tags in use ((Tick/Count))
system.cpu.icache.tags.totalRefs               190190                       # Total number of references to valid blocks. (Count)
system.cpu.icache.tags.sampledRefs                477                       # Sample count of references to valid blocks. (Count)
system.cpu.icache.tags.avgRefs             398.721174                       # Average number of references to valid blocks. ((Count/Count))
system.cpu.icache.tags.warmupTick              107000                       # The tick when the warmup percentage was hit. (Tick)
system.cpu.icache.tags.occupancies::cpu.inst   418.805366                       # Average occupied blocks per tick, per requestor ((Count/Tick))
system.cpu.icache.tags.avgOccs::cpu.inst     0.408990                       # Average percentage of cache occupancy ((Ratio/Tick))
system.cpu.icache.tags.avgOccs::total        0.408990                       # Average percentage of cache occupancy ((Ratio/Tick))
system.cpu.icache.tags.occupanciesTaskId::1024          459                       # Occupied blocks per task id (Count)
system.cpu.icache.tags.ageTaskId_1024::0           43                       # Occupied blocks per task id, per block age (Count)
system.cpu.icache.tags.ageTaskId_1024::2            1                       # Occupied blocks per task id, per block age (Count)
system.cpu.icache.tags.ageTaskId_1024::4          415                       # Occupied blocks per task id, per block age (Count)
system.cpu.icache.tags.ratioOccsTaskId::1024     0.448242                       # Ratio of occupied blocks and all blocks, per task id (Ratio)
system.cpu.icache.tags.tagAccesses             381083                       # Number of tag accesses (Count)
system.cpu.icache.tags.dataAccesses            381083                       # Number of data accesses (Count)
system.cpu.icache.tags.power_state.pwrStateResidencyTicks::UNDEFINED  42017385000                       # Cumulative time (in ticks) in various power states (Tick)
system.cpu.iew.idleCycles                           0                       # Number of cycles IEW is idle (Cycle)
system.cpu.iew.squashCycles                      1217                       # Number of cycles IEW is squashing (Cycle)
system.cpu.iew.blockCycles                     215017                       # Number of cycles IEW is blocking (Cycle)
system.cpu.iew.unblockCycles                 14082552                       # Number of cycles IEW is unblocking (Cycle)
system.cpu.iew.dispatchedInsts               17867941                       # Number of instructions dispatched to IQ (Count)
system.cpu.iew.dispSquashedInsts                   86                       # Number of squashed instructions skipped by dispatch (Count)
system.cpu.iew.dispLoadInsts                   129746                       # Number of dispatched load instructions (Count)
system.cpu.iew.dispStoreInsts                 2207735                       # Number of dispatched store instructions (Count)
system.cpu.iew.dispNonSpecInsts                    12                       # Number of dispatched non-speculative instructions (Count)
system.cpu.iew.iqFullEvents                     16981                       # Number of times the IQ has become full, causing a stall (Count)
system.cpu.iew.lsqFullEvents                 14065387                       # Number of times the LSQ has become full, causing a stall (Count)
system.cpu.iew.memOrderViolationEvents             11                       # Number of memory order violations (Count)
system.cpu.iew.predictedTakenIncorrect            399                       # Number of branches that were predicted taken incorrectly (Count)
system.cpu.iew.predictedNotTakenIncorrect          740                       # Number of branches that were predicted not taken incorrectly (Count)
system.cpu.iew.branchMispredicts                 1139                       # Number of branch mispredicts detected at execute (Count)
system.cpu.iew.instsToCommit                 17860574                       # Cumulative count of insts sent to commit (Count)
system.cpu.iew.writebackCount                17853305                       # Cumulative count of insts written-back (Count)
system.cpu.iew.producerInst                  12033438                       # Number of instructions producing a value (Count)
system.cpu.iew.consumerInst                  17992913                       # Number of instructions consuming a value (Count)
system.cpu.iew.wbRate                        0.424903                       # Insts written-back per cycle ((Count/Cycle))
system.cpu.iew.wbFanout                      0.668788                       # Average fanout of values written-back ((Count/Count))
system.cpu.interrupts.clk_domain.clock          16000                       # Clock period in ticks (Tick)
system.cpu.itb_walker_cache.blockedCycles::no_mshrs            0                       # number of cycles access was blocked (Cycle)
[...]
system.mem_ctrls.dram.perBankWrBursts::13        48141                       # Per bank write bursts (Count)
system.mem_ctrls.dram.perBankWrBursts::14        42429                       # Per bank write bursts (Count)
system.mem_ctrls.dram.perBankWrBursts::15        42000                       # Per bank write bursts (Count)
system.mem_ctrls.dram.totQLat             23444369015                       # Total ticks spent queuing (Tick)
system.mem_ctrls.dram.totBusLat            4756640000                       # Total ticks spent in databus transfers (Tick)
system.mem_ctrls.dram.totMemAccLat        41281769015                       # Total ticks spent from burst creation until serviced by the DRAM (Tick)
system.mem_ctrls.dram.avgQLat                24643.83                       # Average queueing delay per DRAM burst ((Tick/Count))
system.mem_ctrls.dram.avgBusLat               5000.00                       # Average bus latency per DRAM burst ((Tick/Count))
system.mem_ctrls.dram.avgMemAccLat           43393.83                       # Average memory access latency per DRAM burst ((Tick/Count))
system.mem_ctrls.dram.readRowHits              865524                       # Number of row buffer hits during reads (Count)
system.mem_ctrls.dram.writeRowHits             551167                       # Number of row buffer hits during writes (Count)
system.mem_ctrls.dram.readRowHitRate            90.98                       # Row buffer hit rate for reads (Ratio)
system.mem_ctrls.dram.writeRowHitRate           75.18                       # Row buffer hit rate for writes (Ratio)
system.mem_ctrls.dram.bytesPerActivate::samples       267735                       # Bytes accessed per row activation (Byte)
system.mem_ctrls.dram.bytesPerActivate::mean   402.640760                       # Bytes accessed per row activation (Byte)
system.mem_ctrls.dram.bytesPerActivate::gmean   229.661241                       # Bytes accessed per row activation (Byte)
system.mem_ctrls.dram.bytesPerActivate::stdev   386.992676                       # Bytes accessed per row activation (Byte)
system.mem_ctrls.dram.bytesPerActivate::0-127        83094     31.04%     31.04% # Bytes accessed per row activation (Byte)
system.mem_ctrls.dram.bytesPerActivate::128-255        61610     23.01%     54.05% # Bytes accessed per row activation (Byte)
system.mem_ctrls.dram.bytesPerActivate::256-383        21214      7.92%     61.97% # Bytes accessed per row activation (Byte)
system.mem_ctrls.dram.bytesPerActivate::384-511        11839      4.42%     66.39% # Bytes accessed per row activation (Byte)
system.mem_ctrls.dram.bytesPerActivate::512-639         9050      3.38%     69.77% # Bytes accessed per row activation (Byte)
system.mem_ctrls.dram.bytesPerActivate::640-767         8108      3.03%     72.80% # Bytes accessed per row activation (Byte)
system.mem_ctrls.dram.bytesPerActivate::768-895         7743      2.89%     75.69% # Bytes accessed per row activation (Byte)
system.mem_ctrls.dram.bytesPerActivate::896-1023         8427      3.15%     78.84% # Bytes accessed per row activation (Byte)
system.mem_ctrls.dram.bytesPerActivate::1024-1151        56650     21.16%    100.00% # Bytes accessed per row activation (Byte)
system.mem_ctrls.dram.bytesPerActivate::total       267735                       # Bytes accessed per row activation (Byte)
system.mem_ctrls.dram.bytesRead              60884992                       # Total bytes read (Byte)
system.mem_ctrls.dram.bytesWritten           46918784                       # Total bytes written (Byte)
system.mem_ctrls.dram.avgRdBW             1449.042866                       # Average DRAM read bandwidth in MiBytes/s ((Byte/Second))
system.mem_ctrls.dram.avgWrBW             1116.651691                       # Average DRAM write bandwidth in MiBytes/s ((Byte/Second))
system.mem_ctrls.dram.peakBW                 12800.00                       # Theoretical peak bandwidth in MiByte/s ((Byte/Second))
system.mem_ctrls.dram.busUtil                   20.04                       # Data bus utilization in percentage (Ratio)
system.mem_ctrls.dram.busUtilRead               11.32                       # Data bus utilization in percentage for reads (Ratio)
system.mem_ctrls.dram.busUtilWrite               8.72                       # Data bus utilization in percentage for writes (Ratio)
system.mem_ctrls.dram.pageHitRate               84.10                       # Row buffer hit rate, read and write combined (Ratio)
system.mem_ctrls.dram.power_state.pwrStateResidencyTicks::UNDEFINED  42017385000                       # Cumulative time (in ticks) in various power states (Tick)
system.mem_ctrls.dram.rank0.actEnergy       937482000                       # Energy for activate commands per rank (pJ) (Joule)
system.mem_ctrls.dram.rank0.preEnergy       498268320                       # Energy for precharge commands per rank (pJ) (Joule)
system.mem_ctrls.dram.rank0.readEnergy     3334358580                       # Energy for read commands per rank (pJ) (Joule)
system.mem_ctrls.dram.rank0.writeEnergy    1880625060                       # Energy for write commands per rank (pJ) (Joule)
system.mem_ctrls.dram.rank0.refreshEnergy 3316597440.000000                       # Energy for refresh commands per rank (pJ) (Joule)
system.mem_ctrls.dram.rank0.actBackEnergy  16207792680                       # Energy for active background per rank (pJ) (Joule)
system.mem_ctrls.dram.rank0.preBackEnergy   2486008320                       # Energy for precharge background per rank (pJ) (Joule)
system.mem_ctrls.dram.rank0.actPowerDownEnergy            0                       # Energy for active power-down per rank (pJ) (Joule)
system.mem_ctrls.dram.rank0.prePowerDownEnergy            0                       # Energy for precharge power-down per rank (pJ) (Joule)
system.mem_ctrls.dram.rank0.selfRefreshEnergy            0                       # Energy for self refresh per rank (pJ) (Joule)
system.mem_ctrls.dram.rank0.totalEnergy   28661132400                       # Total energy per rank (pJ) (Joule)
system.mem_ctrls.dram.rank0.averagePower   682.125563                       # Core power per rank (mW) (Watt)
system.mem_ctrls.dram.rank0.totalIdleTime            0                       # Total Idle time Per DRAM Rank (Tick)
system.mem_ctrls.dram.rank0.pwrStateTime::IDLE   6203051254                       # Time in different power states (Tick)
system.mem_ctrls.dram.rank0.pwrStateTime::REF   1402960000                       # Time in different power states (Tick)
system.mem_ctrls.dram.rank0.pwrStateTime::SREF            0                       # Time in different power states (Tick)
system.mem_ctrls.dram.rank0.pwrStateTime::PRE_PDN            0                       # Time in different power states (Tick)
system.mem_ctrls.dram.rank0.pwrStateTime::ACT  34411373746                       # Time in different power states (Tick)
system.mem_ctrls.dram.rank0.pwrStateTime::ACT_PDN            0                       # Time in different power states (Tick)
system.mem_ctrls.dram.rank1.actEnergy       974203020                       # Energy for activate commands per rank (pJ) (Joule)
system.mem_ctrls.dram.rank1.preEnergy       517786005                       # Energy for precharge commands per rank (pJ) (Joule)
system.mem_ctrls.dram.rank1.readEnergy     3458123340                       # Energy for read commands per rank (pJ) (Joule)
system.mem_ctrls.dram.rank1.writeEnergy    1946188260                       # Energy for write commands per rank (pJ) (Joule)
system.mem_ctrls.dram.rank1.refreshEnergy 3316597440.000000                       # Energy for refresh commands per rank (pJ) (Joule)
system.mem_ctrls.dram.rank1.actBackEnergy  16311439200                       # Energy for active background per rank (pJ) (Joule)
system.mem_ctrls.dram.rank1.preBackEnergy   2398727040                       # Energy for precharge background per rank (pJ) (Joule)
system.mem_ctrls.dram.rank1.actPowerDownEnergy            0                       # Energy for active power-down per rank (pJ) (Joule)
system.mem_ctrls.dram.rank1.prePowerDownEnergy            0                       # Energy for precharge power-down per rank (pJ) (Joule)
system.mem_ctrls.dram.rank1.selfRefreshEnergy            0                       # Energy for self refresh per rank (pJ) (Joule)
system.mem_ctrls.dram.rank1.totalEnergy   28923064305                       # Total energy per rank (pJ) (Joule)
system.mem_ctrls.dram.rank1.averagePower   688.359457                       # Core power per rank (mW) (Watt)
system.mem_ctrls.dram.rank1.totalIdleTime            0                       # Total Idle time Per DRAM Rank (Tick)
system.mem_ctrls.dram.rank1.pwrStateTime::IDLE   5972371287                       # Time in different power states (Tick)
system.mem_ctrls.dram.rank1.pwrStateTime::REF   1402960000                       # Time in different power states (Tick)
system.mem_ctrls.dram.rank1.pwrStateTime::SREF            0                       # Time in different power states (Tick)
system.mem_ctrls.dram.rank1.pwrStateTime::PRE_PDN            0                       # Time in different power states (Tick)
system.mem_ctrls.dram.rank1.pwrStateTime::ACT  34642053713                       # Time in different power states (Tick)
system.mem_ctrls.dram.rank1.pwrStateTime::ACT_PDN            0                       # Time in different power states (Tick)
system.mem_ctrls.power_state.pwrStateResidencyTicks::UNDEFINED  42017385000                       # Cumulative time (in ticks) in various power states (Tick)
system.membus.transDist::ReadResp              706420                       # Transaction distribution (Count)
system.membus.transDist::WritebackDirty        733127                       # Transaction distribution (Count)
system.membus.transDist::CleanEvict            213754                       # Transaction distribution (Count)
system.membus.transDist::ReadExReq             244973                       # Transaction distribution (Count)
system.membus.transDist::ReadExResp            244973                       # Transaction distribution (Count)
system.membus.transDist::ReadSharedReq         706421                       # Transaction distribution (Count)
system.membus.pktCount_system.l2.mem_side_port::system.mem_ctrls.port      2849668                       # Packet count per connected requestor and responder (Count)
system.membus.pktCount_system.l2.mem_side_port::total      2849668                       # Packet count per connected requestor and responder (Count)
system.membus.pktCount::total                 2849668                       # Packet count per connected requestor and responder (Count)
system.membus.pktSize_system.l2.mem_side_port::system.mem_ctrls.port    107809280                       # Cumulative packet size per connected requestor and responder (Byte)
system.membus.pktSize_system.l2.mem_side_port::total    107809280                       # Cumulative packet size per connected requestor and responder (Byte)
system.membus.pktSize::total                107809280                       # Cumulative packet size per connected requestor and responder (Byte)
system.membus.snoops                                0                       # Total snoops (Count)
system.membus.snoopTraffic                          0                       # Total snoop traffic (Byte)
system.membus.snoopFanout::samples             951394                       # Request fanout histogram (Count)
system.membus.snoopFanout::mean                     0                       # Request fanout histogram (Count)
system.membus.snoopFanout::stdev                    0                       # Request fanout histogram (Count)
system.membus.snoopFanout::underflows               0      0.00%      0.00% # Request fanout histogram (Count)
system.membus.snoopFanout::0                   951394    100.00%    100.00% # Request fanout histogram (Count)
system.membus.snoopFanout::1                        0      0.00%    100.00% # Request fanout histogram (Count)
system.membus.snoopFanout::overflows                0      0.00%    100.00% # Request fanout histogram (Count)
system.membus.snoopFanout::min_value                0                       # Request fanout histogram (Count)
system.membus.snoopFanout::max_value                0                       # Request fanout histogram (Count)
system.membus.snoopFanout::total               951394                       # Request fanout histogram (Count)
system.membus.power_state.pwrStateResidencyTicks::UNDEFINED  42017385000                       # Cumulative time (in ticks) in various power states (Tick)
system.membus.reqLayer2.occupancy          4933409033                       # Layer occupancy (ticks) (Tick)
system.membus.reqLayer2.utilization               0.1                       # Layer utilization (Ratio)
system.membus.respLayer1.occupancy         4920594124                       # Layer occupancy (ticks) (Tick)
system.membus.respLayer1.utilization              0.1                       # Layer utilization (Ratio)
system.membus.snoop_filter.totRequests        1898275                       # Total number of requests made to the snoop filter. (Count)
system.membus.snoop_filter.hitSingleRequests       946881                       # Number of requests hitting in the snoop filter with a single holder of the requested data. (Count)
system.membus.snoop_filter.hitMultiRequests            0                       # Number of requests hitting in the snoop filter with multiple (>1) holders of the requested data. (Count)
system.membus.snoop_filter.totSnoops                0                       # Total number of snoops made to the snoop filter. (Count)
system.membus.snoop_filter.hitSingleSnoops            0                       # Number of snoops hitting in the snoop filter with a single holder of the requested data. (Count)
system.membus.snoop_filter.hitMultiSnoops            0                       # Number of snoops hitting in the snoop filter with multiple (>1) holders of the requested data. (Count)
system.tol2bus.transDist::ReadResp             543317                       # Transaction distribution (Count)
system.tol2bus.transDist::WritebackDirty      1501785                       # Transaction distribution (Count)
system.tol2bus.transDist::WritebackClean           18                       # Transaction distribution (Count)
system.tol2bus.transDist::CleanEvict           370880                       # Transaction distribution (Count)
system.tol2bus.transDist::HardPFReq            654554                       # Transaction distribution (Count)
system.tol2bus.transDist::ReadExReq            382216                       # Transaction distribution (Count)
system.tol2bus.transDist::ReadExResp           382216                       # Transaction distribution (Count)
system.tol2bus.transDist::ReadCleanReq            478                       # Transaction distribution (Count)
system.tol2bus.transDist::ReadSharedReq        542840                       # Transaction distribution (Count)
system.tol2bus.pktCount_system.cpu.icache.mem_side_port::system.l2.cpu_side_port          973                       # Packet count per connected requestor and responder (Count)
system.tol2bus.pktCount_system.cpu.dcache.mem_side_port::system.l2.cpu_side_port      2774144                       # Packet count per connected requestor and responder (Count)
system.tol2bus.pktCount::total                2775117                       # Packet count per connected requestor and responder (Count)
system.tol2bus.pktSize_system.cpu.icache.mem_side_port::system.l2.cpu_side_port        31680                       # Cumulative packet size per connected requestor and responder (Byte)
system.tol2bus.pktSize_system.cpu.dcache.mem_side_port::system.l2.cpu_side_port    108397696                       # Cumulative packet size per connected requestor and responder (Byte)
system.tol2bus.pktSize::total               108429376                       # Cumulative packet size per connected requestor and responder (Byte)
system.tol2bus.snoops                         1603187                       # Total snoops (Count)
system.tol2bus.snoopTraffic                  46920128                       # Total snoop traffic (Byte)
system.tol2bus.snoopFanout::samples           2528721                       # Request fanout histogram (Count)
system.tol2bus.snoopFanout::mean             0.001291                       # Request fanout histogram (Count)
system.tol2bus.snoopFanout::stdev            0.035904                       # Request fanout histogram (Count)
system.tol2bus.snoopFanout::underflows              0      0.00%      0.00% # Request fanout histogram (Count)
system.tol2bus.snoopFanout::0                 2525457     99.87%     99.87% # Request fanout histogram (Count)
system.tol2bus.snoopFanout::1                    3264      0.13%    100.00% # Request fanout histogram (Count)
system.tol2bus.snoopFanout::2                       0      0.00%    100.00% # Request fanout histogram (Count)
system.tol2bus.snoopFanout::3                       0      0.00%    100.00% # Request fanout histogram (Count)
system.tol2bus.snoopFanout::4                       0      0.00%    100.00% # Request fanout histogram (Count)
system.tol2bus.snoopFanout::overflows               0      0.00%    100.00% # Request fanout histogram (Count)
system.tol2bus.snoopFanout::min_value               0                       # Request fanout histogram (Count)
system.tol2bus.snoopFanout::max_value               1                       # Request fanout histogram (Count)
system.tol2bus.snoopFanout::total             2528721                       # Request fanout histogram (Count)
system.tol2bus.power_state.pwrStateResidencyTicks::UNDEFINED  42017385000                       # Cumulative time (in ticks) in various power states (Tick)
system.tol2bus.reqLayer0.occupancy         3774962129                       # Layer occupancy (ticks) (Tick)
system.tol2bus.reqLayer0.utilization              0.1                       # Layer utilization (Ratio)
system.tol2bus.respLayer0.occupancy           1431000                       # Layer occupancy (ticks) (Tick)
system.tol2bus.respLayer0.utilization             0.0                       # Layer utilization (Ratio)
system.tol2bus.respLayer1.occupancy        2775168000                       # Layer occupancy (ticks) (Tick)
system.tol2bus.respLayer1.utilization             0.1                       # Layer utilization (Ratio)
system.tol2bus.snoop_filter.totRequests       1849584                       # Total number of requests made to the snoop filter. (Count)
system.tol2bus.snoop_filter.hitSingleRequests       924050                       # Number of requests hitting in the snoop filter with a single holder of the requested data. (Count)
system.tol2bus.snoop_filter.hitMultiRequests            0                       # Number of requests hitting in the snoop filter with multiple (>1) holders of the requested data. (Count)
system.tol2bus.snoop_filter.totSnoops            3264                       # Total number of snoops made to the snoop filter. (Count)
system.tol2bus.snoop_filter.hitSingleSnoops         3264                       # Number of snoops hitting in the snoop filter with a single holder of the requested data. (Count)
system.tol2bus.snoop_filter.hitMultiSnoops            0                       # Number of snoops hitting in the snoop filter with multiple (>1) holders of the requested data. (Count)
system.voltage_domain.voltage                       1                       # Voltage in Volts (Volt)
system.workload.inst.arm                            0                       # number of arm instructions executed (Count)
system.workload.inst.quiesce                        0                       # number of quiesce instructions executed (Count)

---------- End Simulation Statistics   ----------
