
---------- Begin Simulation Statistics ----------
simSeconds                                   0.117187                       # Number of seconds simulated (Second)
simTicks                                 117186813000                       # Number of ticks simulated (Tick)
finalTick                                117186813000                       # Number of ticks from beginning of simulation (restored from checkpoints and never reset) (Tick)
simFreq                                  1000000000000                       # The number of ticks per simulated second ((Tick/Second))
hostSeconds                                     75.64                       # Real time elapsed on the host (Second)
hostTickRate                               1549342706                       # The number of ticks simulated per host second (ticks/s) ((Tick/Second))
hostMemory                                     658440                       # Number of bytes of host memory used (Byte)
simInsts                                     11335584                       # Number of instructions simulated (Count)
simOps                                       22597604                       # Number of ops (including micro ops) simulated (Count)
hostInstRate                                   149869                       # Simulator instruction rate (inst/s) ((Count/Second))
hostOpRate                                     298766                       # Simulator op (including micro ops) rate (op/s) ((Count/Second))
system.clk_domain.clock                          1000                       # Clock period in ticks (Tick)
system.cpu.numCycles                        117186813                       # Number of cpu cycles simulated (Cycle)
system.cpu.numWorkItemsStarted                      0                       # Number of work items this cpu started (Count)
system.cpu.numWorkItemsCompleted                    0                       # Number of work items this cpu completed (Count)
system.cpu.numInsts                          11335584                       # Number of instructions committed (Count)
system.cpu.numOps                            22597604                       # Number of ops (including micro ops) committed (Count)
system.cpu.numDiscardedOps                    9087732                       # Number of ops (including micro ops) which were discarded before commit (Count)
system.cpu.numFetchSuspends                         0                       # Number of times Execute suspended instruction fetching (Count)
system.cpu.cpi                              10.337960                       # CPI: cycles per instruction ((Cycle/Count))
system.cpu.ipc                               0.096731                       # IPC: instructions per cycle ((Count/Cycle))
system.cpu.committedInstType_0::No_OpClass          186      0.00%      0.00% # Class of committed instruction (Count)
system.cpu.committedInstType_0::IntAlu       11437793     50.62%     50.62% # Class of committed instruction (Count)
system.cpu.committedInstType_0::IntMult             5      0.00%     50.62% # Class of committed instruction (Count)
system.cpu.committedInstType_0::IntDiv             21      0.00%     50.62% # Class of committed instruction (Count)
system.cpu.committedInstType_0::FloatAdd      3152457     13.95%     64.57% # Class of committed instruction (Count)
system.cpu.committedInstType_0::FloatCmp            0      0.00%     64.57% # Class of committed instruction (Count)
system.cpu.committedInstType_0::FloatCvt            0      0.00%     64.57% # Class of committed instruction (Count)
system.cpu.committedInstType_0::FloatMult            0      0.00%     64.57% # Class of committed instruction (Count)
system.cpu.committedInstType_0::FloatMultAcc            0      0.00%     64.57% # Class of committed instruction (Count)
system.cpu.committedInstType_0::FloatDiv            0      0.00%     64.57% # Class of committed instruction (Count)
system.cpu.committedInstType_0::FloatMisc            0      0.00%     64.57% # Class of committed instruction (Count)
system.cpu.committedInstType_0::FloatSqrt            0      0.00%     64.57% # Class of committed instruction (Count)
system.cpu.committedInstType_0::SimdAdd             0      0.00%     64.57% # Class of committed instruction (Count)
system.cpu.committedInstType_0::SimdAddAcc            0      0.00%     64.57% # Class of committed instruction (Count)
system.cpu.committedInstType_0::SimdAlu            96      0.00%     64.57% # Class of committed instruction (Count)
system.cpu.committedInstType_0::SimdCmp             0      0.00%     64.57% # Class of committed instruction (Count)
system.cpu.committedInstType_0::SimdCvt            46      0.00%     64.57% # Class of committed instruction (Count)
system.cpu.committedInstType_0::SimdMisc          215      0.00%     64.57% # Class of committed instruction (Count)
system.cpu.committedInstType_0::SimdMult            0      0.00%     64.57% # Class of committed instruction (Count)
system.cpu.committedInstType_0::SimdMultAcc            0      0.00%     64.57% # Class of committed instruction (Count)
system.cpu.committedInstType_0::SimdShift            0      0.00%     64.57% # Class of committed instruction (Count)
system.cpu.committedInstType_0::SimdShiftAcc            0      0.00%     64.57% # Class of committed instruction (Count)
system.cpu.committedInstType_0::SimdDiv             0      0.00%     64.57% # Class of committed instruction (Count)
system.cpu.committedInstType_0::SimdSqrt            0      0.00%     64.57% # Class of committed instruction (Count)
system.cpu.committedInstType_0::SimdFloatAdd      1600737      7.08%     71.65% # Class of committed instruction (Count)
system.cpu.committedInstType_0::SimdFloatAlu            0      0.00%     71.65% # Class of committed instruction (Count)
system.cpu.committedInstType_0::SimdFloatCmp            0      0.00%     71.65% # Class of committed instruction (Count)
system.cpu.committedInstType_0::SimdFloatCvt            0      0.00%     71.65% # Class of committed instruction (Count)
system.cpu.committedInstType_0::SimdFloatDiv            0      0.00%     71.65% # Class of committed instruction (Count)
system.cpu.committedInstType_0::SimdFloatMisc            0      0.00%     71.65% # Class of committed instruction (Count)
system.cpu.committedInstType_0::SimdFloatMult      1576161      6.97%     78.63% # Class of committed instruction (Count)
system.cpu.committedInstType_0::SimdFloatMultAcc            0      0.00%     78.63% # Class of committed instruction (Count)
system.cpu.committedInstType_0::SimdFloatSqrt            0      0.00%     78.63% # Class of committed instruction (Count)
system.cpu.committedInstType_0::SimdReduceAdd            0      0.00%     78.63% # Class of committed instruction (Count)
system.cpu.committedInstType_0::SimdReduceAlu            0      0.00%     78.63% # Class of committed instruction (Count)
system.cpu.committedInstType_0::SimdReduceCmp            0      0.00%     78.63% # Class of committed instruction (Count)
system.cpu.committedInstType_0::SimdFloatReduceAdd            0      0.00%     78.63% # Class of committed instruction (Count)
system.cpu.committedInstType_0::SimdFloatReduceCmp            0      0.00%     78.63% # Class of committed instruction (Count)
system.cpu.committedInstType_0::SimdAes             0      0.00%     78.63% # Class of committed instruction (Count)
system.cpu.committedInstType_0::SimdAesMix            0      0.00%     78.63% # Class of committed instruction (Count)
system.cpu.committedInstType_0::SimdSha1Hash            0      0.00%     78.63% # Class of committed instruction (Count)
system.cpu.committedInstType_0::SimdSha1Hash2            0      0.00%     78.63% # Class of committed instruction (Count)
system.cpu.committedInstType_0::SimdSha256Hash            0      0.00%     78.63% # Class of committed instruction (Count)
system.cpu.committedInstType_0::SimdSha256Hash2            0      0.00%     78.63% # Class of committed instruction (Count)
system.cpu.committedInstType_0::SimdShaSigma2            0      0.00%     78.63% # Class of committed instruction (Count)
system.cpu.committedInstType_0::SimdShaSigma3            0      0.00%     78.63% # Class of committed instruction (Count)
system.cpu.committedInstType_0::SimdPredAlu            0      0.00%     78.63% # Class of committed instruction (Count)
system.cpu.committedInstType_0::MemRead       1626767      7.20%     85.83% # Class of committed instruction (Count)
system.cpu.committedInstType_0::MemWrite         1141      0.01%     85.83% # Class of committed instruction (Count)
system.cpu.committedInstType_0::FloatMemRead      3176944     14.06%     99.89% # Class of committed instruction (Count)
system.cpu.committedInstType_0::FloatMemWrite        25035      0.11%    100.00% # Class of committed instruction (Count)
system.cpu.committedInstType_0::IprAccess            0      0.00%    100.00% # Class of committed instruction (Count)
system.cpu.committedInstType_0::InstPrefetch            0      0.00%    100.00% # Class of committed instruction (Count)
system.cpu.committedInstType_0::total        22597604                       # Class of committed instruction (Count)
system.cpu.branchPred.lookups                       0                       # Number of BP lookups (Count)
system.cpu.branchPred.condPredicted                 0                       # Number of conditional branches predicted (Count)
system.cpu.branchPred.condIncorrect                 0                       # Number of conditional branches incorrect (Count)
system.cpu.branchPred.BTBLookups                    0                       # Number of BTB lookups (Count)
system.cpu.branchPred.BTBHits                       0                       # Number of BTB hits (Count)
system.cpu.branchPred.BTBHitRatio                 nan                       # BTB Hit Ratio (Ratio)
system.cpu.branchPred.RASUsed                       0                       # Number of times the RAS was used to get a target. (Count)
system.cpu.branchPred.RASIncorrect                  0                       # Number of incorrect RAS predictions. (Count)
system.cpu.branchPred.indirectLookups               0                       # Number of indirect predictor lookups. (Count)
system.cpu.branchPred.indirectHits                  0                       # Number of indirect target hits. (Count)
system.cpu.branchPred.indirectMisses                0                       # Number of indirect misses. (Count)
system.cpu.branchPred.indirectMispredicted            0                       # Number of mispredicted indirect branches. (Count)
system.cpu.dcache.demandHits::cpu.data        5266914                       # number of demand (read+write) hits (Count)
system.cpu.dcache.demandHits::total           5266914                       # number of demand (read+write) hits (Count)
system.cpu.dcache.overallHits::cpu.data       5266914                       # number of overall hits (Count)
system.cpu.dcache.overallHits::total          5266914                       # number of overall hits (Count)
system.cpu.dcache.demandMisses::cpu.data      1314338                       # number of demand (read+write) misses (Count)
system.cpu.dcache.demandMisses::total         1314338                       # number of demand (read+write) misses (Count)
system.cpu.dcache.overallMisses::cpu.data      1314338                       # number of overall misses (Count)
system.cpu.dcache.overallMisses::total        1314338                       # number of overall misses (Count)
system.cpu.dcache.demandMissLatency::cpu.data  88394573000                       # number of demand (read+write) miss ticks (Tick)
system.cpu.dcache.demandMissLatency::total  88394573000                       # number of demand (read+write) miss ticks (Tick)
system.cpu.dcache.overallMissLatency::cpu.data  88394573000                       # number of overall miss ticks (Tick)
system.cpu.dcache.overallMissLatency::total  88394573000                       # number of overall miss ticks (Tick)
system.cpu.dcache.demandAccesses::cpu.data      6581252                       # number of demand (read+write) accesses (Count)
system.cpu.dcache.demandAccesses::total       6581252                       # number of demand (read+write) accesses (Count)
system.cpu.dcache.overallAccesses::cpu.data      6581252                       # number of overall (read+write) accesses (Count)
system.cpu.dcache.overallAccesses::total      6581252                       # number of overall (read+write) accesses (Count)
system.cpu.dcache.demandMissRate::cpu.data     0.199709                       # miss rate for demand accesses (Ratio)
system.cpu.dcache.demandMissRate::total      0.199709                       # miss rate for demand accesses (Ratio)
system.cpu.dcache.overallMissRate::cpu.data     0.199709                       # miss rate for overall accesses (Ratio)
system.cpu.dcache.overallMissRate::total     0.199709                       # miss rate for overall accesses (Ratio)
system.cpu.dcache.demandAvgMissLatency::cpu.data 67254.064784                       # average overall miss latency ((Cycle/Count))
system.cpu.dcache.demandAvgMissLatency::total 67254.064784                       # average overall miss latency ((Cycle/Count))
system.cpu.dcache.overallAvgMissLatency::cpu.data 67254.064784                       # average overall miss latency ((Cycle/Count))
system.cpu.dcache.overallAvgMissLatency::total 67254.064784                       # average overall miss latency ((Cycle/Count))
system.cpu.dcache.blockedCycles::no_mshrs       374505                       # number of cycles access was blocked (Cycle)
system.cpu.dcache.blockedCycles::no_targets            0                       # number of cycles access was blocked (Cycle)
system.cpu.dcache.blockedCauses::no_mshrs        21978                       # number of times access was blocked (Count)
system.cpu.dcache.blockedCauses::no_targets            0                       # number of times access was blocked (Count)
system.cpu.dcache.avgBlocked::no_mshrs      17.039995                       # average number of cycles each access was blocked ((Cycle/Count))
system.cpu.dcache.avgBlocked::no_targets          nan                       # average number of cycles each access was blocked ((Cycle/Count))
system.cpu.dcache.writebacks::writebacks         1710                       # number of writebacks (Count)
system.cpu.dcache.writebacks::total              1710                       # number of writebacks (Count)
system.cpu.dcache.demandMshrHits::cpu.data         6979                       # number of demand (read+write) MSHR hits (Count)
system.cpu.dcache.demandMshrHits::total          6979                       # number of demand (read+write) MSHR hits (Count)
system.cpu.dcache.overallMshrHits::cpu.data         6979                       # number of overall MSHR hits (Count)
system.cpu.dcache.overallMshrHits::total         6979                       # number of overall MSHR hits (Count)
system.cpu.dcache.demandMshrMisses::cpu.data      1307359                       # number of demand (read+write) MSHR misses (Count)
system.cpu.dcache.demandMshrMisses::total      1307359                       # number of demand (read+write) MSHR misses (Count)
system.cpu.dcache.overallMshrMisses::cpu.data      1307359                       # number of overall MSHR misses (Count)
system.cpu.dcache.overallMshrMisses::cpu.dcache.prefetcher      2941979                       # number of overall MSHR misses (Count)
system.cpu.dcache.overallMshrMisses::total      4249338                       # number of overall MSHR misses (Count)
system.cpu.dcache.demandMshrMissLatency::cpu.data  85543709000                       # number of demand (read+write) MSHR miss ticks (Tick)
system.cpu.dcache.demandMshrMissLatency::total  85543709000                       # number of demand (read+write) MSHR miss ticks (Tick)
system.cpu.dcache.overallMshrMissLatency::cpu.data  85543709000                       # number of overall MSHR miss ticks (Tick)
system.cpu.dcache.overallMshrMissLatency::cpu.dcache.prefetcher 158555773621                       # number of overall MSHR miss ticks (Tick)
system.cpu.dcache.overallMshrMissLatency::total 244099482621                       # number of overall MSHR miss ticks (Tick)
system.cpu.dcache.demandMshrMissRate::cpu.data     0.198649                       # mshr miss ratio for demand accesses (Ratio)
system.cpu.dcache.demandMshrMissRate::total     0.198649                       # mshr miss ratio for demand accesses (Ratio)
system.cpu.dcache.overallMshrMissRate::cpu.data     0.198649                       # mshr miss ratio for overall accesses (Ratio)
system.cpu.dcache.overallMshrMissRate::cpu.dcache.prefetcher          inf                       # mshr miss ratio for overall accesses (Ratio)
system.cpu.dcache.overallMshrMissRate::total     0.645673                       # mshr miss ratio for overall accesses (Ratio)
system.cpu.dcache.demandAvgMshrMissLatency::cpu.data 65432.455049                       # average overall mshr miss latency ((Cycle/Count))
system.cpu.dcache.demandAvgMshrMissLatency::total 65432.455049                       # average overall mshr miss latency ((Cycle/Count))
system.cpu.dcache.overallAvgMshrMissLatency::cpu.data 65432.455049                       # average overall mshr miss latency ((Cycle/Count))
system.cpu.dcache.overallAvgMshrMissLatency::cpu.dcache.prefetcher 53894.257444                       # average overall mshr miss latency ((Cycle/Count))
system.cpu.dcache.overallAvgMshrMissLatency::total 57444.120148                       # average overall mshr miss latency ((Cycle/Count))
system.cpu.dcache.replacements                4248314                       # number of replacements (Count)
system.cpu.dcache.HardPFReq.mshrMisses::cpu.dcache.prefetcher      2941979                       # number of HardPFReq MSHR misses (Count)
system.cpu.dcache.HardPFReq.mshrMisses::total      2941979                       # number of HardPFReq MSHR misses (Count)
system.cpu.dcache.HardPFReq.mshrMissLatency::cpu.dcache.prefetcher 158555773621                       # number of HardPFReq MSHR miss ticks (Tick)
system.cpu.dcache.HardPFReq.mshrMissLatency::total 158555773621                       # number of HardPFReq MSHR miss ticks (Tick)
system.cpu.dcache.HardPFReq.mshrMissRate::cpu.dcache.prefetcher          inf                       # mshr miss rate for HardPFReq accesses (Ratio)
system.cpu.dcache.HardPFReq.mshrMissRate::total          inf                       # mshr miss rate for HardPFReq accesses (Ratio)
system.cpu.dcache.HardPFReq.avgMshrMissLatency::cpu.dcache.prefetcher 53894.257444                       # average HardPFReq mshr miss latency ((Tick/Count))
system.cpu.dcache.HardPFReq.avgMshrMissLatency::total 53894.257444                       # average HardPFReq mshr miss latency ((Tick/Count))
system.cpu.dcache.ReadReq.hits::cpu.data      5240851                       # number of ReadReq hits (Count)
system.cpu.dcache.ReadReq.hits::total         5240851                       # number of ReadReq hits (Count)
system.cpu.dcache.ReadReq.misses::cpu.data      1314226                       # number of ReadReq misses (Count)
system.cpu.dcache.ReadReq.misses::total       1314226                       # number of ReadReq misses (Count)
system.cpu.dcache.ReadReq.missLatency::cpu.data  88388188000                       # number of ReadReq miss ticks (Tick)
system.cpu.dcache.ReadReq.missLatency::total  88388188000                       # number of ReadReq miss ticks (Tick)
system.cpu.dcache.ReadReq.accesses::cpu.data      6555077                       # number of ReadReq accesses(hits+misses) (Count)
system.cpu.dcache.ReadReq.accesses::total      6555077                       # number of ReadReq accesses(hits+misses) (Count)
system.cpu.dcache.ReadReq.missRate::cpu.data     0.200490                       # miss rate for ReadReq accesses (Ratio)
system.cpu.dcache.ReadReq.missRate::total     0.200490                       # miss rate for ReadReq accesses (Ratio)
system.cpu.dcache.ReadReq.avgMissLatency::cpu.data 67254.937887                       # average ReadReq miss latency ((Tick/Count))
system.cpu.dcache.ReadReq.avgMissLatency::total 67254.937887                       # average ReadReq miss latency ((Tick/Count))
system.cpu.dcache.ReadReq.mshrHits::cpu.data         6933                       # number of ReadReq MSHR hits (Count)
system.cpu.dcache.ReadReq.mshrHits::total         6933                       # number of ReadReq MSHR hits (Count)
system.cpu.dcache.ReadReq.mshrMisses::cpu.data      1307293                       # number of ReadReq MSHR misses (Count)
system.cpu.dcache.ReadReq.mshrMisses::total      1307293                       # number of ReadReq MSHR misses (Count)
system.cpu.dcache.ReadReq.mshrMissLatency::cpu.data  85539900000                       # number of ReadReq MSHR miss ticks (Tick)
system.cpu.dcache.ReadReq.mshrMissLatency::total  85539900000                       # number of ReadReq MSHR miss ticks (Tick)
system.cpu.dcache.ReadReq.mshrMissRate::cpu.data     0.199432                       # mshr miss rate for ReadReq accesses (Ratio)
system.cpu.dcache.ReadReq.mshrMissRate::total     0.199432                       # mshr miss rate for ReadReq accesses (Ratio)
system.cpu.dcache.ReadReq.avgMshrMissLatency::cpu.data 65432.844817                       # average ReadReq mshr miss latency ((Tick/Count))
system.cpu.dcache.ReadReq.avgMshrMissLatency::total 65432.844817                       # average ReadReq mshr miss latency ((Tick/Count))
system.cpu.dcache.WriteReq.hits::cpu.data        26063                       # number of WriteReq hits (Count)
system.cpu.dcache.WriteReq.hits::total          26063                       # number of WriteReq hits (Count)
system.cpu.dcache.WriteReq.misses::cpu.data          112                       # number of WriteReq misses (Count)
system.cpu.dcache.WriteReq.misses::total          112                       # number of WriteReq misses (Count)
system.cpu.dcache.WriteReq.missLatency::cpu.data      6385000                       # number of WriteReq miss ticks (Tick)
system.cpu.dcache.WriteReq.missLatency::total      6385000                       # number of WriteReq miss ticks (Tick)
system.cpu.dcache.WriteReq.accesses::cpu.data        26175                       # number of WriteReq accesses(hits+misses) (Count)
system.cpu.dcache.WriteReq.accesses::total        26175                       # number of WriteReq accesses(hits+misses) (Count)
system.cpu.dcache.WriteReq.missRate::cpu.data     0.004279                       # miss rate for WriteReq accesses (Ratio)
system.cpu.dcache.WriteReq.missRate::total     0.004279                       # miss rate for WriteReq accesses (Ratio)
system.cpu.dcache.WriteReq.avgMissLatency::cpu.data 57008.928571                       # average WriteReq miss latency ((Tick/Count))
system.cpu.dcache.WriteReq.avgMissLatency::total 57008.928571                       # average WriteReq miss latency ((Tick/Count))
system.cpu.dcache.WriteReq.mshrHits::cpu.data           46                       # number of WriteReq MSHR hits (Count)
system.cpu.dcache.WriteReq.mshrHits::total           46                       # number of WriteReq MSHR hits (Count)
system.cpu.dcache.WriteReq.mshrMisses::cpu.data           66                       # number of WriteReq MSHR misses (Count)
system.cpu.dcache.WriteReq.mshrMisses::total           66                       # number of WriteReq MSHR misses (Count)
system.cpu.dcache.WriteReq.mshrMissLatency::cpu.data      3809000                       # number of WriteReq MSHR miss ticks (Tick)
system.cpu.dcache.WriteReq.mshrMissLatency::total      3809000                       # number of WriteReq MSHR miss ticks (Tick)
system.cpu.dcache.WriteReq.mshrMissRate::cpu.data     0.002521                       # mshr miss rate for WriteReq accesses (Ratio)
system.cpu.dcache.WriteReq.mshrMissRate::total     0.002521                       # mshr miss rate for WriteReq accesses (Ratio)
system.cpu.dcache.WriteReq.avgMshrMissLatency::cpu.data 57712.121212                       # average WriteReq mshr miss latency ((Tick/Count))
system.cpu.dcache.WriteReq.avgMshrMissLatency::total 57712.121212                       # average WriteReq mshr miss latency ((Tick/Count))
system.cpu.dcache.power_state.pwrStateResidencyTicks::UNDEFINED 117186813000                       # Cumulative time (in ticks) in various power states (Tick)
system.cpu.dcache.prefetcher.demandMshrMisses      1307359                       # demands not covered by prefetchs (Count)
system.cpu.dcache.prefetcher.pfIssued         3762844                       # number of hwpf issued (Count)
system.cpu.dcache.prefetcher.pfUnused         2611473                       # number of HardPF blocks evicted w/o reference (Count)
system.cpu.dcache.prefetcher.pfUseful          329870                       # number of useful prefetch (Count)
system.cpu.dcache.prefetcher.pfUsefulButMiss            0                       # number of hit on prefetch but cache block is not in an usable state (Count)
system.cpu.dcache.prefetcher.accuracy        0.087665                       # accuracy of the prefetcher (Count)
system.cpu.dcache.prefetcher.coverage        0.201481                       # coverage brought by this prefetcher (Count)
system.cpu.dcache.prefetcher.pfHitInCache       820658                       # number of prefetches hitting in cache (Count)
system.cpu.dcache.prefetcher.pfHitInMSHR           70                       # number of prefetches hitting in a MSHR (Count)
system.cpu.dcache.prefetcher.pfHitInWB            137                       # number of prefetches hit in the Write Buffer (Count)
system.cpu.dcache.prefetcher.pfLate            820865                       # number of late prefetches (hitting in cache, MSHR or WB) (Count)
system.cpu.dcache.prefetcher.pfIdentified      3836557                       # number of prefetch candidates identified (Count)
system.cpu.dcache.prefetcher.pfBufferHit        42269                       # number of redundant prefetches already in prefetch queue (Count)
system.cpu.dcache.prefetcher.pfInCache              0                       # number of redundant prefetches already in cache/mshr dropped (Count)
system.cpu.dcache.prefetcher.pfRemovedDemand        18537                       # number of prefetches dropped due to a demand for the same address (Count)
system.cpu.dcache.prefetcher.pfRemovedFull         6905                       # number of prefetches dropped due to prefetch queue size (Count)
system.cpu.dcache.prefetcher.pfSpanPage        506568                       # number of prefetches that crossed the page (Count)
system.cpu.dcache.prefetcher.ampm.power_state.pwrStateResidencyTicks::UNDEFINED 117186813000                       # Cumulative time (in ticks) in various power states (Tick)
system.cpu.dcache.prefetcher.power_state.pwrStateResidencyTicks::UNDEFINED 117186813000                       # Cumulative time (in ticks) in various power states (Tick)
system.cpu.dcache.tags.tagsInUse          1023.380582                       # Average ticks per tags in use ((Tick/Count))
system.cpu.dcache.tags.totalRefs              9516252                       # Total number of references to valid blocks. (Count)
system.cpu.dcache.tags.sampledRefs            4249338                       # Sample count of references to valid blocks. (Count)
system.cpu.dcache.tags.avgRefs               2.239467                       # Average number of references to valid blocks. ((Count/Count))
system.cpu.dcache.tags.warmupTick              150000                       # The tick when the warmup percentage was hit. (Tick)
system.cpu.dcache.tags.occupancies::cpu.data   322.221276                       # Average occupied blocks per tick, per requestor ((Count/Tick))
system.cpu.dcache.tags.occupancies::cpu.dcache.prefetcher   701.159306                       # Average occupied blocks per tick, per requestor ((Count/Tick))
system.cpu.dcache.tags.avgOccs::cpu.data     0.314669                       # Average percentage of cache occupancy ((Ratio/Tick))
system.cpu.dcache.tags.avgOccs::cpu.dcache.prefetcher     0.684726                       # Average percentage of cache occupancy ((Ratio/Tick))
system.cpu.dcache.tags.avgOccs::total        0.999395                       # Average percentage of cache occupancy ((Ratio/Tick))
system.cpu.dcache.tags.occupanciesTaskId::1022          711                       # Occupied blocks per task id (Count)
system.cpu.dcache.tags.occupanciesTaskId::1024          313                       # Occupied blocks per task id (Count)
system.cpu.dcache.tags.ageTaskId_1022::0          184                       # Occupied blocks per task id, per block age (Count)
system.cpu.dcache.tags.ageTaskId_1022::1          517                       # Occupied blocks per task id, per block age (Count)
system.cpu.dcache.tags.ageTaskId_1022::2           10                       # Occupied blocks per task id, per block age (Count)
system.cpu.dcache.tags.ageTaskId_1024::0           87                       # Occupied blocks per task id, per block age (Count)
system.cpu.dcache.tags.ageTaskId_1024::1          224                       # Occupied blocks per task id, per block age (Count)
system.cpu.dcache.tags.ageTaskId_1024::2            2                       # Occupied blocks per task id, per block age (Count)
system.cpu.dcache.tags.ratioOccsTaskId::1022     0.694336                       # Ratio of occupied blocks and all blocks, per task id (Ratio)
system.cpu.dcache.tags.ratioOccsTaskId::1024     0.305664                       # Ratio of occupied blocks and all blocks, per task id (Ratio)
system.cpu.dcache.tags.tagAccesses           17411842                       # Number of tag accesses (Count)
system.cpu.dcache.tags.dataAccesses          17411842                       # Number of data accesses (Count)
system.cpu.dcache.tags.power_state.pwrStateResidencyTicks::UNDEFINED 117186813000                       # Cumulative time (in ticks) in various power states (Tick)
system.cpu.dtb_walker_cache.blockedCycles::no_mshrs            0                       # number of cycles access was blocked (Cycle)
system.cpu.dtb_walker_cache.blockedCycles::no_targets            0                       # number of cycles access was blocked (Cycle)
system.cpu.dtb_walker_cache.blockedCauses::no_mshrs            0                       # number of times access was blocked (Count)
system.cpu.dtb_walker_cache.blockedCauses::no_targets            0                       # number of times access was blocked (Count)
system.cpu.dtb_walker_cache.avgBlocked::no_mshrs          nan                       # average number of cycles each access was blocked ((Cycle/Count))
system.cpu.dtb_walker_cache.avgBlocked::no_targets          nan                       # average number of cycles each access was blocked ((Cycle/Count))
system.cpu.dtb_walker_cache.replacements            0                       # number of replacements (Count)
system.cpu.dtb_walker_cache.power_state.pwrStateResidencyTicks::UNDEFINED 117186813000                       # Cumulative time (in ticks) in various power states (Tick)
system.cpu.dtb_walker_cache.tags.tagsInUse            0                       # Average ticks per tags in use ((Tick/Count))
system.cpu.dtb_walker_cache.tags.totalRefs            0                       # Total number of references to valid blocks. (Count)
system.cpu.dtb_walker_cache.tags.sampledRefs            0                       # Sample count of references to valid blocks. (Count)
system.cpu.dtb_walker_cache.tags.avgRefs          nan                       # Average number of references to valid blocks. ((Count/Count))
system.cpu.dtb_walker_cache.tags.warmupTick            0                       # The tick when the warmup percentage was hit. (Tick)
system.cpu.dtb_walker_cache.tags.tagAccesses            0                       # Number of tag accesses (Count)
system.cpu.dtb_walker_cache.tags.dataAccesses            0                       # Number of data accesses (Count)
system.cpu.dtb_walker_cache.tags.power_state.pwrStateResidencyTicks::UNDEFINED 117186813000                       # Cumulative time (in ticks) in various power states (Tick)
system.cpu.fetch2.intInstructions                   9                       # Number of integer instructions successfully decoded (Count)
system.cpu.fetch2.fpInstructions                    0                       # Number of floating point instructions successfully decoded (Count)
system.cpu.fetch2.vecInstructions                   0                       # Number of SIMD instructions successfully decoded (Count)
system.cpu.fetch2.loadInstructions                  0                       # Number of memory load instructions successfully decoded (Count)
system.cpu.fetch2.storeInstructions                 0                       # Number of memory store instructions successfully decoded (Count)
system.cpu.fetch2.amoInstructions                   0                       # Number of memory atomic instructions successfully decoded (Count)
system.cpu.icache.demandHits::cpu.inst        6311443                       # number of demand (read+write) hits (Count)
system.cpu.icache.demandHits::total           6311443                       # number of demand (read+write) hits (Count)
system.cpu.icache.overallHits::cpu.inst       6311443                       # number of overall hits (Count)
system.cpu.icache.overallHits::total          6311443                       # number of overall hits (Count)
system.cpu.icache.demandMisses::cpu.inst          532                       # number of demand (read+write) misses (Count)
system.cpu.icache.demandMisses::total             532                       # number of demand (read+write) misses (Count)
system.cpu.icache.overallMisses::cpu.inst          532                       # number of overall misses (Count)
system.cpu.icache.overallMisses::total            532                       # number of overall misses (Count)
system.cpu.icache.demandMissLatency::cpu.inst     31129000                       # number of demand (read+write) miss ticks (Tick)
system.cpu.icache.demandMissLatency::total     31129000                       # number of demand (read+write) miss ticks (Tick)
system.cpu.icache.overallMissLatency::cpu.inst     31129000                       # number of overall miss ticks (Tick)
system.cpu.icache.overallMissLatency::total     31129000                       # number of overall miss ticks (Tick)
system.cpu.icache.demandAccesses::cpu.inst      6311975                       # number of demand (read+write) accesses (Count)
system.cpu.icache.demandAccesses::total       6311975                       # number of demand (read+write) accesses (Count)
system.cpu.icache.overallAccesses::cpu.inst      6311975                       # number of overall (read+write) accesses (Count)
system.cpu.icache.overallAccesses::total      6311975                       # number of overall (read+write) accesses (Count)
system.cpu.icache.demandMissRate::cpu.inst     0.000084                       # miss rate for demand accesses (Ratio)
system.cpu.icache.demandMissRate::total      0.000084                       # miss rate for demand accesses (Ratio)
system.cpu.icache.overallMissRate::cpu.inst     0.000084                       # miss rate for overall accesses (Ratio)
system.cpu.icache.overallMissRate::total     0.000084                       # miss rate for overall accesses (Ratio)
system.cpu.icache.demandAvgMissLatency::cpu.inst 58513.157895                       # average overall miss latency ((Cycle/Count))
system.cpu.icache.demandAvgMissLatency::total 58513.157895                       # average overall miss latency ((Cycle/Count))
system.cpu.icache.overallAvgMissLatency::cpu.inst 58513.157895                       # average overall miss latency ((Cycle/Count))
system.cpu.icache.overallAvgMissLatency::total 58513.157895                       # average overall miss latency ((Cycle/Count))
system.cpu.icache.blockedCycles::no_mshrs            0                       # number of cycles access was blocked (Cycle)
system.cpu.icache.blockedCycles::no_targets            0                       # number of cycles access was blocked (Cycle)
system.cpu.icache.blockedCauses::no_mshrs            0                       # number of times access was blocked (Count)
system.cpu.icache.blockedCauses::no_targets            0                       # number of times access was blocked (Count)
system.cpu.icache.avgBlocked::no_mshrs            nan                       # average number of cycles each access was blocked ((Cycle/Count))
system.cpu.icache.avgBlocked::no_targets          nan                       # average number of cycles each access was blocked ((Cycle/Count))
system.cpu.icache.writebacks::writebacks           38                       # number of writebacks (Count)
system.cpu.icache.writebacks::total                38                       # number of writebacks (Count)
system.cpu.icache.demandMshrMisses::cpu.inst          532                       # number of demand (read+write) MSHR misses (Count)
system.cpu.icache.demandMshrMisses::total          532                       # number of demand (read+write) MSHR misses (Count)
system.cpu.icache.overallMshrMisses::cpu.inst          532                       # number of overall MSHR misses (Count)
system.cpu.icache.overallMshrMisses::total          532                       # number of overall MSHR misses (Count)
system.cpu.icache.demandMshrMissLatency::cpu.inst     30067000                       # number of demand (read+write) MSHR miss ticks (Tick)
system.cpu.icache.demandMshrMissLatency::total     30067000                       # number of demand (read+write) MSHR miss ticks (Tick)
system.cpu.icache.overallMshrMissLatency::cpu.inst     30067000                       # number of overall MSHR miss ticks (Tick)
system.cpu.icache.overallMshrMissLatency::total     30067000                       # number of overall MSHR miss ticks (Tick)
system.cpu.icache.demandMshrMissRate::cpu.inst     0.000084                       # mshr miss ratio for demand accesses (Ratio)
system.cpu.icache.demandMshrMissRate::total     0.000084                       # mshr miss ratio for demand accesses (Ratio)
system.cpu.icache.overallMshrMissRate::cpu.inst     0.000084                       # mshr miss ratio for overall accesses (Ratio)
system.cpu.icache.overallMshrMissRate::total     0.000084                       # mshr miss ratio for overall accesses (Ratio)
system.cpu.icache.demandAvgMshrMissLatency::cpu.inst 56516.917293                       # average overall mshr miss latency ((Cycle/Count))
system.cpu.icache.demandAvgMshrMissLatency::total 56516.917293                       # average overall mshr miss latency ((Cycle/Count))
system.cpu.icache.overallAvgMshrMissLatency::cpu.inst 56516.917293                       # average overall mshr miss latency ((Cycle/Count))
system.cpu.icache.overallAvgMshrMissLatency::total 56516.917293                       # average overall mshr miss latency ((Cycle/Count))
system.cpu.icache.replacements                     38                       # number of replacements (Count)
system.cpu.icache.ReadReq.hits::cpu.inst      6311443                       # number of ReadReq hits (Count)
system.cpu.icache.ReadReq.hits::total         6311443                       # number of ReadReq hits (Count)
system.cpu.icache.ReadReq.misses::cpu.inst          532                       # number of ReadReq misses (Count)
system.cpu.icache.ReadReq.misses::total           532                       # number of ReadReq misses (Count)
system.cpu.icache.ReadReq.missLatency::cpu.inst     31129000                       # number of ReadReq miss ticks (Tick)
system.cpu.icache.ReadReq.missLatency::total     31129000                       # number of ReadReq miss ticks (Tick)
system.cpu.icache.ReadReq.accesses::cpu.inst      6311975                       # number of ReadReq accesses(hits+misses) (Count)
system.cpu.icache.ReadReq.accesses::total      6311975                       # number of ReadReq accesses(hits+misses) (Count)
system.cpu.icache.ReadReq.missRate::cpu.inst     0.000084                       # miss rate for ReadReq accesses (Ratio)
system.cpu.icache.ReadReq.missRate::total     0.000084                       # miss rate for ReadReq accesses (Ratio)
system.cpu.icache.ReadReq.avgMissLatency::cpu.inst 58513.157895                       # average ReadReq miss latency ((Tick/Count))
system.cpu.icache.ReadReq.avgMissLatency::total 58513.157895                       # average ReadReq miss latency ((Tick/Count))
system.cpu.icache.ReadReq.mshrMisses::cpu.inst          532                       # number of ReadReq MSHR misses (Count)
system.cpu.icache.ReadReq.mshrMisses::total          532                       # number of ReadReq MSHR misses (Count)
system.cpu.icache.ReadReq.mshrMissLatency::cpu.inst     30067000                       # number of ReadReq MSHR miss ticks (Tick)
system.cpu.icache.ReadReq.mshrMissLatency::total     30067000                       # number of ReadReq MSHR miss ticks (Tick)
system.cpu.icache.ReadReq.mshrMissRate::cpu.inst     0.000084                       # mshr miss rate for ReadReq accesses (Ratio)
system.cpu.icache.ReadReq.mshrMissRate::total     0.000084                       # mshr miss rate for ReadReq accesses (Ratio)
system.cpu.icache.ReadReq.avgMshrMissLatency::cpu.inst 56516.917293                       # average ReadReq mshr miss latency ((Tick/Count))
system.cpu.icache.ReadReq.avgMshrMissLatency::total 56516.917293                       # average ReadReq mshr miss latency ((Tick/Count))
system.cpu.icache.power_state.pwrStateResidencyTicks::UNDEFINED 117186813000                       # Cumulative time (in ticks) in various power states (Tick)
system.cpu.icache.tags.tagsInUse           454.906688                       # Average ticks per tags in use ((Tick/Count))
system.cpu.icache.tags.totalRefs              6311974                       # Total number of references to valid blocks. (Count)
system.cpu.icache.tags.sampledRefs                531                       # Sample count of references to valid blocks. (Count)
system.cpu.icache.tags.avgRefs           11886.956685                       # Average number of references to valid blocks. ((Count/Count))
system.cpu.icache.tags.warmupTick               77000                       # The tick when the warmup percentage was hit. (Tick)
system.cpu.icache.tags.occupancies::cpu.inst   454.906688                       # Average occupied blocks per tick, per requestor ((Count/Tick))
system.cpu.icache.tags.avgOccs::cpu.inst     0.444245                       # Average percentage of cache occupancy ((Ratio/Tick))
system.cpu.icache.tags.avgOccs::total        0.444245                       # Average percentage of cache occupancy ((Ratio/Tick))
system.cpu.icache.tags.occupanciesTaskId::1024          493                       # Occupied blocks per task id (Count)
system.cpu.icache.tags.ageTaskId_1024::0           47                       # Occupied blocks per task id, per block age (Count)
system.cpu.icache.tags.ageTaskId_1024::4          446                       # Occupied blocks per task id, per block age (Count)
system.cpu.icache.tags.ratioOccsTaskId::1024     0.481445                       # Ratio of occupied blocks and all blocks, per task id (Ratio)
system.cpu.icache.tags.tagAccesses           12624481                       # Number of tag accesses (Count)
system.cpu.icache.tags.dataAccesses          12624481                       # Number of data accesses (Count)
system.cpu.icache.tags.power_state.pwrStateResidencyTicks::UNDEFINED 117186813000                       # Cumulative time (in ticks) in various power states (Tick)
system.cpu.interrupts.clk_domain.clock          16000                       # Clock period in ticks (Tick)
system.cpu.itb_walker_cache.blockedCycles::no_mshrs            0                       # number of cycles access was blocked (Cycle)
system.cpu.itb_walker_cache.blockedCycles::no_targets            0                       # number of cycles access was blocked (Cycle)
system.cpu.itb_walker_cache.blockedCauses::no_mshrs            0                       # number of times access was blocked (Count)
system.cpu.itb_walker_cache.blockedCauses::no_targets            0                       # number of times access was blocked (Count)
system.cpu.itb_walker_cache.avgBlocked::no_mshrs          nan                       # average number of cycles each access was blocked ((Cycle/Count))
system.cpu.itb_walker_cache.avgBlocked::no_targets          nan                       # average number of cycles each access was blocked ((Cycle/Count))
system.cpu.itb_walker_cache.replacements            0                       # number of replacements (Count)
system.cpu.itb_walker_cache.power_state.pwrStateResidencyTicks::UNDEFINED 117186813000                       # Cumulative time (in ticks) in various power states (Tick)
system.cpu.itb_walker_cache.tags.tagsInUse            0                       # Average ticks per tags in use ((Tick/Count))
system.cpu.itb_walker_cache.tags.totalRefs            0                       # Total number of references to valid blocks. (Count)
system.cpu.itb_walker_cache.tags.sampledRefs            0                       # Sample count of references to valid blocks. (Count)
system.cpu.itb_walker_cache.tags.avgRefs          nan                       # Average number of references to valid blocks. ((Count/Count))
system.cpu.itb_walker_cache.tags.warmupTick            0                       # The tick when the warmup percentage was hit. (Tick)
system.cpu.itb_walker_cache.tags.tagAccesses            0                       # Number of tag accesses (Count)
system.cpu.itb_walker_cache.tags.dataAccesses            0                       # Number of data accesses (Count)
system.cpu.itb_walker_cache.tags.power_state.pwrStateResidencyTicks::UNDEFINED 117186813000                       # Cumulative time (in ticks) in various power states (Tick)
system.cpu.mmu.dtb.rdAccesses                 6555194                       # TLB accesses on read requests (Count)
system.cpu.mmu.dtb.wrAccesses                   26268                       # TLB accesses on write requests (Count)
system.cpu.mmu.dtb.rdMisses                    127913                       # TLB misses on read requests (Count)
system.cpu.mmu.dtb.wrMisses                        30                       # TLB misses on write requests (Count)
system.cpu.mmu.dtb.walker.power_state.pwrStateResidencyTicks::UNDEFINED 117186813000                       # Cumulative time (in ticks) in various power states (Tick)
system.cpu.mmu.itb.rdAccesses                       0                       # TLB accesses on read requests (Count)
system.cpu.mmu.itb.wrAccesses                 6311975                       # TLB accesses on write requests (Count)
system.cpu.mmu.itb.rdMisses                         0                       # TLB misses on read requests (Count)
system.cpu.mmu.itb.wrMisses                        37                       # TLB misses on write requests (Count)
system.cpu.mmu.itb.walker.power_state.pwrStateResidencyTicks::UNDEFINED 117186813000                       # Cumulative time (in ticks) in various power states (Tick)
system.cpu.power_state.pwrStateResidencyTicks::ON 117186813000                       # Cumulative time (in ticks) in various power states (Tick)
system.cpu.thread_0.numInsts                 11335584                       # Number of Instructions committed (Count)
system.cpu.thread_0.numOps                   22597604                       # Number of Ops committed (Count)
system.cpu.thread_0.numMemRefs                      0                       # Number of Memory References (Count)
system.cpu.workload.numSyscalls                    10                       # Number of system calls (Count)
system.cpu_clk_domain.clock                      1000                       # Clock period in ticks (Tick)
system.cpu_voltage_domain.voltage                   1                       # Voltage in Volts (Volt)
system.mem_ctrls.avgPriority_writebacks::samples      1718.00                       # Average QoS priority value for accepted requests (Count)
system.mem_ctrls.avgPriority_cpu.inst::samples       529.00                       # Average QoS priority value for accepted requests (Count)
system.mem_ctrls.avgPriority_cpu.data::samples   1307326.00                       # Average QoS priority value for accepted requests (Count)
system.mem_ctrls.avgPriority_cpu.dcache.prefetcher::samples   2941978.00                       # Average QoS priority value for accepted requests (Count)
system.mem_ctrls.priorityMinLatency      0.000000018750                       # per QoS priority minimum request to response latency (Second)
system.mem_ctrls.priorityMaxLatency      0.008801682250                       # per QoS priority maximum request to response latency (Second)
system.mem_ctrls.numReadWriteTurnArounds          106                       # Number of turnarounds from READ to WRITE (Count)
system.mem_ctrls.numWriteReadTurnArounds          106                       # Number of turnarounds from WRITE to READ (Count)
system.mem_ctrls.numStayReadState             8465836                       # Number of times bus staying in READ state (Count)
system.mem_ctrls.numStayWriteState               1598                       # Number of times bus staying in WRITE state (Count)
system.mem_ctrls.readReqs                     4249870                       # Number of read requests accepted (Count)
system.mem_ctrls.writeReqs                       1748                       # Number of write requests accepted (Count)
system.mem_ctrls.readBursts                   4249870                       # Number of controller read bursts, including those serviced by the write queue (Count)
system.mem_ctrls.writeBursts                     1748                       # Number of controller write bursts, including those merged in the write queue (Count)
system.mem_ctrls.servicedByWrQ                     37                       # Number of controller read bursts serviced by the write queue (Count)
system.mem_ctrls.mergedWrBursts                    30                       # Number of controller write bursts merged with an existing one (Count)
system.mem_ctrls.neitherReadNorWriteReqs            0                       # Number of requests that are neither read nor write (Count)
system.mem_ctrls.avgRdQLen                       1.62                       # Average read queue length when enqueuing ((Count/Tick))
system.mem_ctrls.avgWrQLen                      25.42                       # Average write queue length when enqueuing ((Count/Tick))
system.mem_ctrls.numRdRetry                         0                       # Number of times read queue was full causing retry (Count)
system.mem_ctrls.numWrRetry                         0                       # Number of times write queue was full causing retry (Count)
system.mem_ctrls.readPktSize::0                     0                       # Read request sizes (log2) (Count)
system.mem_ctrls.readPktSize::1                     0                       # Read request sizes (log2) (Count)
system.mem_ctrls.readPktSize::2                     0                       # Read request sizes (log2) (Count)
system.mem_ctrls.readPktSize::3                     0                       # Read request sizes (log2) (Count)
system.mem_ctrls.readPktSize::4                     0                       # Read request sizes (log2) (Count)
system.mem_ctrls.readPktSize::5                     0                       # Read request sizes (log2) (Count)
system.mem_ctrls.readPktSize::6               4249870                       # Read request sizes (log2) (Count)
system.mem_ctrls.writePktSize::0                    0                       # Write request sizes (log2) (Count)
system.mem_ctrls.writePktSize::1                    0                       # Write request sizes (log2) (Count)
system.mem_ctrls.writePktSize::2                    0                       # Write request sizes (log2) (Count)
system.mem_ctrls.writePktSize::3                    0                       # Write request sizes (log2) (Count)
system.mem_ctrls.writePktSize::4                    0                       # Write request sizes (log2) (Count)
system.mem_ctrls.writePktSize::5                    0                       # Write request sizes (log2) (Count)
system.mem_ctrls.writePktSize::6                 1748                       # Write request sizes (log2) (Count)
system.mem_ctrls.rdQLenPdf::0                 2484918                       # What read queue length does an incoming req see (Count)
system.mem_ctrls.rdQLenPdf::1                 1724444                       # What read queue length does an incoming req see (Count)
system.mem_ctrls.rdQLenPdf::2                   40116                       # What read queue length does an incoming req see (Count)
system.mem_ctrls.rdQLenPdf::3                     355                       # What read queue length does an incoming req see (Count)
system.mem_ctrls.rdQLenPdf::4                       0                       # What read queue length does an incoming req see (Count)
system.mem_ctrls.rdQLenPdf::5                       0                       # What read queue length does an incoming req see (Count)
system.mem_ctrls.rdQLenPdf::6                       0                       # What read queue length does an incoming req see (Count)
system.mem_ctrls.rdQLenPdf::7                       0                       # What read queue length does an incoming req see (Count)
system.mem_ctrls.rdQLenPdf::8                       0                       # What read queue length does an incoming req see (Count)
system.mem_ctrls.rdQLenPdf::9                       0                       # What read queue length does an incoming req see (Count)
system.mem_ctrls.rdQLenPdf::10                      0                       # What read queue length does an incoming req see (Count)
system.mem_ctrls.rdQLenPdf::11                      0                       # What read queue length does an incoming req see (Count)
system.mem_ctrls.rdQLenPdf::12                      0                       # What read queue length does an incoming req see (Count)
system.mem_ctrls.rdQLenPdf::13                      0                       # What read queue length does an incoming req see (Count)
system.mem_ctrls.rdQLenPdf::14                      0                       # What read queue length does an incoming req see (Count)
system.mem_ctrls.rdQLenPdf::15                      0                       # What read queue length does an incoming req see (Count)
system.mem_ctrls.rdQLenPdf::16                      0                       # What read queue length does an incoming req see (Count)
system.mem_ctrls.rdQLenPdf::17                      0                       # What read queue length does an incoming req see (Count)
system.mem_ctrls.rdQLenPdf::18                      0                       # What read queue length does an incoming req see (Count)
system.mem_ctrls.rdQLenPdf::19                      0                       # What read queue length does an incoming req see (Count)
system.mem_ctrls.rdQLenPdf::20                      0                       # What read queue length does an incoming req see (Count)
system.mem_ctrls.rdQLenPdf::21                      0                       # What read queue length does an incoming req see (Count)
system.mem_ctrls.rdQLenPdf::22                      0                       # What read queue length does an incoming req see (Count)
system.mem_ctrls.rdQLenPdf::23                      0                       # What read queue length does an incoming req see (Count)
system.mem_ctrls.rdQLenPdf::24                      0                       # What read queue length does an incoming req see (Count)
system.mem_ctrls.rdQLenPdf::25                      0                       # What read queue length does an incoming req see (Count)
system.mem_ctrls.rdQLenPdf::26                      0                       # What read queue length does an incoming req see (Count)
system.mem_ctrls.rdQLenPdf::27                      0                       # What read queue length does an incoming req see (Count)
system.mem_ctrls.rdQLenPdf::28                      0                       # What read queue length does an incoming req see (Count)
system.mem_ctrls.rdQLenPdf::29                      0                       # What read queue length does an incoming req see (Count)
system.mem_ctrls.rdQLenPdf::30                      0                       # What read queue length does an incoming req see (Count)
system.mem_ctrls.rdQLenPdf::31                      0                       # What read queue length does an incoming req see (Count)
system.mem_ctrls.wrQLenPdf::0                       1                       # What write queue length does an incoming req see (Count)
system.mem_ctrls.wrQLenPdf::1                       1                       # What write queue length does an incoming req see (Count)
system.mem_ctrls.wrQLenPdf::2                       1                       # What write queue length does an incoming req see (Count)
system.mem_ctrls.wrQLenPdf::3                       1                       # What write queue length does an incoming req see (Count)
system.mem_ctrls.wrQLenPdf::4                       1                       # What write queue length does an incoming req see (Count)
system.mem_ctrls.wrQLenPdf::5                       1                       # What write queue length does an incoming req see (Count)
system.mem_ctrls.wrQLenPdf::6                       1                       # What write queue length does an incoming req see (Count)
system.mem_ctrls.wrQLenPdf::7                       1                       # What write queue length does an incoming req see (Count)
system.mem_ctrls.wrQLenPdf::8                       1                       # What write queue length does an incoming req see (Count)
system.mem_ctrls.wrQLenPdf::9                       1                       # What write queue length does an incoming req see (Count)
system.mem_ctrls.wrQLenPdf::10                      1                       # What write queue length does an incoming req see (Count)
system.mem_ctrls.wrQLenPdf::11                      1                       # What write queue length does an incoming req see (Count)
system.mem_ctrls.wrQLenPdf::12                      1                       # What write queue length does an incoming req see (Count)
system.mem_ctrls.wrQLenPdf::13                      1                       # What write queue length does an incoming req see (Count)
system.mem_ctrls.wrQLenPdf::14                      1                       # What write queue length does an incoming req see (Count)
system.mem_ctrls.wrQLenPdf::15                      2                       # What write queue length does an incoming req see (Count)
system.mem_ctrls.wrQLenPdf::16                      2                       # What write queue length does an incoming req see (Count)
system.mem_ctrls.wrQLenPdf::17                    106                       # What write queue length does an incoming req see (Count)
system.mem_ctrls.wrQLenPdf::18                    107                       # What write queue length does an incoming req see (Count)
system.mem_ctrls.wrQLenPdf::19                    107                       # What write queue length does an incoming req see (Count)
system.mem_ctrls.wrQLenPdf::20                    106                       # What write queue length does an incoming req see (Count)
system.mem_ctrls.wrQLenPdf::21                    106                       # What write queue length does an incoming req see (Count)
system.mem_ctrls.wrQLenPdf::22                    106                       # What write queue length does an incoming req see (Count)
system.mem_ctrls.wrQLenPdf::23                    106                       # What write queue length does an incoming req see (Count)
system.mem_ctrls.wrQLenPdf::24                    106                       # What write queue length does an incoming req see (Count)
system.mem_ctrls.wrQLenPdf::25                    106                       # What write queue length does an incoming req see (Count)
system.mem_ctrls.wrQLenPdf::26                    106                       # What write queue length does an incoming req see (Count)
system.mem_ctrls.wrQLenPdf::27                    106                       # What write queue length does an incoming req see (Count)
system.mem_ctrls.wrQLenPdf::28                    106                       # What write queue length does an incoming req see (Count)
system.mem_ctrls.wrQLenPdf::29                    106                       # What write queue length does an incoming req see (Count)
system.mem_ctrls.wrQLenPdf::30                    107                       # What write queue length does an incoming req see (Count)
system.mem_ctrls.wrQLenPdf::31                    106                       # What write queue length does an incoming req see (Count)
system.mem_ctrls.wrQLenPdf::32                    106                       # What write queue length does an incoming req see (Count)
system.mem_ctrls.wrQLenPdf::33                      0                       # What write queue length does an incoming req see (Count)
system.mem_ctrls.wrQLenPdf::34                      0                       # What write queue length does an incoming req see (Count)
system.mem_ctrls.wrQLenPdf::35                      0                       # What write queue length does an incoming req see (Count)
system.mem_ctrls.wrQLenPdf::36                      0                       # What write queue length does an incoming req see (Count)
system.mem_ctrls.wrQLenPdf::37                      0                       # What write queue length does an incoming req see (Count)
system.mem_ctrls.wrQLenPdf::38                      0                       # What write queue length does an incoming req see (Count)
system.mem_ctrls.wrQLenPdf::39                      0                       # What write queue length does an incoming req see (Count)
system.mem_ctrls.wrQLenPdf::40                      0                       # What write queue length does an incoming req see (Count)
system.mem_ctrls.wrQLenPdf::41                      0                       # What write queue length does an incoming req see (Count)
system.mem_ctrls.wrQLenPdf::42                      0                       # What write queue length does an incoming req see (Count)
system.mem_ctrls.wrQLenPdf::43                      0                       # What write queue length does an incoming req see (Count)
system.mem_ctrls.wrQLenPdf::44                      0                       # What write queue length does an incoming req see (Count)
system.mem_ctrls.wrQLenPdf::45                      0                       # What write queue length does an incoming req see (Count)
system.mem_ctrls.wrQLenPdf::46                      0                       # What write queue length does an incoming req see (Count)
system.mem_ctrls.wrQLenPdf::47                      0                       # What write queue length does an incoming req see (Count)
system.mem_ctrls.wrQLenPdf::48                      0                       # What write queue length does an incoming req see (Count)
system.mem_ctrls.wrQLenPdf::49                      0                       # What write queue length does an incoming req see (Count)
system.mem_ctrls.wrQLenPdf::50                      0                       # What write queue length does an incoming req see (Count)
system.mem_ctrls.wrQLenPdf::51                      0                       # What write queue length does an incoming req see (Count)
system.mem_ctrls.wrQLenPdf::52                      0                       # What write queue length does an incoming req see (Count)
system.mem_ctrls.wrQLenPdf::53                      0                       # What write queue length does an incoming req see (Count)
system.mem_ctrls.wrQLenPdf::54                      0                       # What write queue length does an incoming req see (Count)
system.mem_ctrls.wrQLenPdf::55                      0                       # What write queue length does an incoming req see (Count)
system.mem_ctrls.wrQLenPdf::56                      0                       # What write queue length does an incoming req see (Count)
system.mem_ctrls.wrQLenPdf::57                      0                       # What write queue length does an incoming req see (Count)
system.mem_ctrls.wrQLenPdf::58                      0                       # What write queue length does an incoming req see (Count)
system.mem_ctrls.wrQLenPdf::59                      0                       # What write queue length does an incoming req see (Count)
system.mem_ctrls.wrQLenPdf::60                      0                       # What write queue length does an incoming req see (Count)
system.mem_ctrls.wrQLenPdf::61                      0                       # What write queue length does an incoming req see (Count)
system.mem_ctrls.wrQLenPdf::62                      0                       # What write queue length does an incoming req see (Count)
system.mem_ctrls.wrQLenPdf::63                      0                       # What write queue length does an incoming req see (Count)
system.mem_ctrls.rdPerTurnAround::samples          106                       # Reads before turning the bus around for writes (Count)
system.mem_ctrls.rdPerTurnAround::mean   40092.245283                       # Reads before turning the bus around for writes (Count)
system.mem_ctrls.rdPerTurnAround::gmean  28004.272167                       # Reads before turning the bus around for writes (Count)
system.mem_ctrls.rdPerTurnAround::stdev  12754.908386                       # Reads before turning the bus around for writes (Count)
system.mem_ctrls.rdPerTurnAround::0-2047            9      8.49%      8.49% # Reads before turning the bus around for writes (Count)
system.mem_ctrls.rdPerTurnAround::12288-14335            1      0.94%      9.43% # Reads before turning the bus around for writes (Count)
system.mem_ctrls.rdPerTurnAround::28672-30719            1      0.94%     10.38% # Reads before turning the bus around for writes (Count)
system.mem_ctrls.rdPerTurnAround::38912-40959            1      0.94%     11.32% # Reads before turning the bus around for writes (Count)
system.mem_ctrls.rdPerTurnAround::40960-43007           23     21.70%     33.02% # Reads before turning the bus around for writes (Count)
system.mem_ctrls.rdPerTurnAround::43008-45055           46     43.40%     76.42% # Reads before turning the bus around for writes (Count)
system.mem_ctrls.rdPerTurnAround::45056-47103           19     17.92%     94.34% # Reads before turning the bus around for writes (Count)
system.mem_ctrls.rdPerTurnAround::47104-49151            3      2.83%     97.17% # Reads before turning the bus around for writes (Count)
system.mem_ctrls.rdPerTurnAround::49152-51199            3      2.83%    100.00% # Reads before turning the bus around for writes (Count)
system.mem_ctrls.rdPerTurnAround::total           106                       # Reads before turning the bus around for writes (Count)
system.mem_ctrls.wrPerTurnAround::samples          106                       # Writes before turning the bus around for reads (Count)
system.mem_ctrls.wrPerTurnAround::mean      16.018868                       # Writes before turning the bus around for reads (Count)
system.mem_ctrls.wrPerTurnAround::gmean     16.017788                       # Writes before turning the bus around for reads (Count)
system.mem_ctrls.wrPerTurnAround::stdev      0.194257                       # Writes before turning the bus around for reads (Count)
system.mem_ctrls.wrPerTurnAround::16              105     99.06%     99.06% # Writes before turning the bus around for reads (Count)
system.mem_ctrls.wrPerTurnAround::18                1      0.94%    100.00% # Writes before turning the bus around for reads (Count)
system.mem_ctrls.wrPerTurnAround::total           106                       # Writes before turning the bus around for reads (Count)
system.mem_ctrls.bytesReadWrQ                    2368                       # Total number of bytes read from write queue (Byte)
system.mem_ctrls.bytesReadSys               271991680                       # Total read bytes from the system interface side (Byte)
system.mem_ctrls.bytesWrittenSys               111872                       # Total written bytes from the system interface side (Byte)
system.mem_ctrls.avgRdBWSys              2321009276.01811314                       # Average system read bandwidth in Byte/s ((Byte/Second))
system.mem_ctrls.avgWrBWSys              954646.66318726                       # Average system write bandwidth in Byte/s ((Byte/Second))
system.mem_ctrls.totGap                  117186809000                       # Total gap between requests (Tick)
system.mem_ctrls.avgGap                      27562.87                       # Average gap between requests ((Tick/Count))
system.mem_ctrls.requestorReadBytes::cpu.inst        33856                       # Per-requestor bytes read from memory (Byte)
system.mem_ctrls.requestorReadBytes::cpu.data     83668864                       # Per-requestor bytes read from memory (Byte)
system.mem_ctrls.requestorReadBytes::cpu.dcache.prefetcher    188286592                       # Per-requestor bytes read from memory (Byte)
system.mem_ctrls.requestorWriteBytes::writebacks       108672                       # Per-requestor bytes write to memory (Byte)
system.mem_ctrls.requestorReadRate::cpu.inst 288906.227017198573                       # Per-requestor bytes read from memory rate ((Byte/Second))
system.mem_ctrls.requestorReadRate::cpu.data 713978491.760843396187                       # Per-requestor bytes read from memory rate ((Byte/Second))
system.mem_ctrls.requestorReadRate::cpu.dcache.prefetcher 1606721670.978457212448                       # Per-requestor bytes read from memory rate ((Byte/Second))
system.mem_ctrls.requestorWriteRate::writebacks 927339.836437057122                       # Per-requestor bytes write to memory rate ((Byte/Second))
system.mem_ctrls.requestorReadAccesses::cpu.inst          532                       # Per-requestor read serviced memory accesses (Count)
system.mem_ctrls.requestorReadAccesses::cpu.data      1307359                       # Per-requestor read serviced memory accesses (Count)
system.mem_ctrls.requestorReadAccesses::cpu.dcache.prefetcher      2941979                       # Per-requestor read serviced memory accesses (Count)
system.mem_ctrls.requestorWriteAccesses::writebacks         1748                       # Per-requestor write serviced memory accesses (Count)
system.mem_ctrls.requestorReadTotalLat::cpu.inst     12938752                       # Per-requestor read total memory access latency (Tick)
system.mem_ctrls.requestorReadTotalLat::cpu.data  43048900386                       # Per-requestor read total memory access latency (Tick)
system.mem_ctrls.requestorReadTotalLat::cpu.dcache.prefetcher  66583663706                       # Per-requestor read total memory access latency (Tick)
system.mem_ctrls.requestorWriteTotalLat::writebacks 2856710040346                       # Per-requestor write total memory access latency (Tick)
system.mem_ctrls.requestorReadAvgLat::cpu.inst     24320.96                       # Per-requestor read average memory access latency ((Tick/Count))
system.mem_ctrls.requestorReadAvgLat::cpu.data     32928.14                       # Per-requestor read average memory access latency ((Tick/Count))
system.mem_ctrls.requestorReadAvgLat::cpu.dcache.prefetcher     22632.27                       # Per-requestor read average memory access latency ((Tick/Count))
system.mem_ctrls.requestorWriteAvgLat::writebacks 1634273478.46                       # Per-requestor write average memory access latency ((Tick/Count))
system.mem_ctrls.dram.bytesRead::cpu.inst        33984                       # Number of bytes read from this memory (Byte)
system.mem_ctrls.dram.bytesRead::cpu.data     83670976                       # Number of bytes read from this memory (Byte)
system.mem_ctrls.dram.bytesRead::cpu.dcache.prefetcher    188286656                       # Number of bytes read from this memory (Byte)
system.mem_ctrls.dram.bytesRead::total      271991616                       # Number of bytes read from this memory (Byte)
system.mem_ctrls.dram.bytesInstRead::cpu.inst        33984                       # Number of instructions bytes read from this memory (Byte)
system.mem_ctrls.dram.bytesInstRead::total        33984                       # Number of instructions bytes read from this memory (Byte)
system.mem_ctrls.dram.bytesWritten::writebacks       109440                       # Number of bytes written to this memory (Byte)
system.mem_ctrls.dram.bytesWritten::total       109440                       # Number of bytes written to this memory (Byte)
system.mem_ctrls.dram.numReads::cpu.inst          531                       # Number of read requests responded to by this memory (Count)
system.mem_ctrls.dram.numReads::cpu.data      1307359                       # Number of read requests responded to by this memory (Count)
system.mem_ctrls.dram.numReads::cpu.dcache.prefetcher      2941979                       # Number of read requests responded to by this memory (Count)
system.mem_ctrls.dram.numReads::total         4249869                       # Number of read requests responded to by this memory (Count)
system.mem_ctrls.dram.numWrites::writebacks         1710                       # Number of write requests responded to by this memory (Count)
system.mem_ctrls.dram.numWrites::total           1710                       # Number of write requests responded to by this memory (Count)
system.mem_ctrls.dram.bwRead::cpu.inst         289999                       # Total read bandwidth from this memory ((Byte/Second))
system.mem_ctrls.dram.bwRead::cpu.data      713996514                       # Total read bandwidth from this memory ((Byte/Second))
system.mem_ctrls.dram.bwRead::cpu.dcache.prefetcher   1606722217                       # Total read bandwidth from this memory ((Byte/Second))
system.mem_ctrls.dram.bwRead::total        2321008730                       # Total read bandwidth from this memory ((Byte/Second))
system.mem_ctrls.dram.bwInstRead::cpu.inst       289999                       # Instruction read bandwidth from this memory ((Byte/Second))
system.mem_ctrls.dram.bwInstRead::total        289999                       # Instruction read bandwidth from this memory ((Byte/Second))
system.mem_ctrls.dram.bwWrite::writebacks       933893                       # Write bandwidth from this memory ((Byte/Second))
system.mem_ctrls.dram.bwWrite::total           933893                       # Write bandwidth from this memory ((Byte/Second))
system.mem_ctrls.dram.bwTotal::writebacks       933893                       # Total bandwidth to/from this memory ((Byte/Second))
system.mem_ctrls.dram.bwTotal::cpu.inst        289999                       # Total bandwidth to/from this memory ((Byte/Second))
system.mem_ctrls.dram.bwTotal::cpu.data     713996514                       # Total bandwidth to/from this memory ((Byte/Second))
system.mem_ctrls.dram.bwTotal::cpu.dcache.prefetcher   1606722217                       # Total bandwidth to/from this memory ((Byte/Second))
system.mem_ctrls.dram.bwTotal::total       2321942623                       # Total bandwidth to/from this memory ((Byte/Second))
system.mem_ctrls.dram.readBursts              4249833                       # Number of DRAM read bursts (Count)
system.mem_ctrls.dram.writeBursts                1698                       # Number of DRAM write bursts (Count)
system.mem_ctrls.dram.perBankRdBursts::0       270233                       # Per bank write bursts (Count)
system.mem_ctrls.dram.perBankRdBursts::1       270636                       # Per bank write bursts (Count)
system.mem_ctrls.dram.perBankRdBursts::2       269209                       # Per bank write bursts (Count)
system.mem_ctrls.dram.perBankRdBursts::3       268522                       # Per bank write bursts (Count)
system.mem_ctrls.dram.perBankRdBursts::4       262148                       # Per bank write bursts (Count)
system.mem_ctrls.dram.perBankRdBursts::5       263255                       # Per bank write bursts (Count)
system.mem_ctrls.dram.perBankRdBursts::6       264135                       # Per bank write bursts (Count)
system.mem_ctrls.dram.perBankRdBursts::7       262962                       # Per bank write bursts (Count)
system.mem_ctrls.dram.perBankRdBursts::8       264309                       # Per bank write bursts (Count)
system.mem_ctrls.dram.perBankRdBursts::9       267143                       # Per bank write bursts (Count)
system.mem_ctrls.dram.perBankRdBursts::10       267167                       # Per bank write bursts (Count)
system.mem_ctrls.dram.perBankRdBursts::11       268887                       # Per bank write bursts (Count)
system.mem_ctrls.dram.perBankRdBursts::12       261239                       # Per bank write bursts (Count)
system.mem_ctrls.dram.perBankRdBursts::13       261577                       # Per bank write bursts (Count)
system.mem_ctrls.dram.perBankRdBursts::14       261602                       # Per bank write bursts (Count)
system.mem_ctrls.dram.perBankRdBursts::15       266809                       # Per bank write bursts (Count)
system.mem_ctrls.dram.perBankWrBursts::0            4                       # Per bank write bursts (Count)
system.mem_ctrls.dram.perBankWrBursts::1            7                       # Per bank write bursts (Count)
system.mem_ctrls.dram.perBankWrBursts::2            4                       # Per bank write bursts (Count)
system.mem_ctrls.dram.perBankWrBursts::3            0                       # Per bank write bursts (Count)
system.mem_ctrls.dram.perBankWrBursts::4           27                       # Per bank write bursts (Count)
system.mem_ctrls.dram.perBankWrBursts::5           28                       # Per bank write bursts (Count)
system.mem_ctrls.dram.perBankWrBursts::6          175                       # Per bank write bursts (Count)
system.mem_ctrls.dram.perBankWrBursts::7            6                       # Per bank write bursts (Count)
system.mem_ctrls.dram.perBankWrBursts::8          234                       # Per bank write bursts (Count)
system.mem_ctrls.dram.perBankWrBursts::9          386                       # Per bank write bursts (Count)
system.mem_ctrls.dram.perBankWrBursts::10          387                       # Per bank write bursts (Count)
system.mem_ctrls.dram.perBankWrBursts::11          386                       # Per bank write bursts (Count)
system.mem_ctrls.dram.perBankWrBursts::12           42                       # Per bank write bursts (Count)
system.mem_ctrls.dram.perBankWrBursts::13            0                       # Per bank write bursts (Count)
system.mem_ctrls.dram.perBankWrBursts::14            4                       # Per bank write bursts (Count)
system.mem_ctrls.dram.perBankWrBursts::15            8                       # Per bank write bursts (Count)
system.mem_ctrls.dram.totQLat             29961134094                       # Total ticks spent queuing (Tick)
system.mem_ctrls.dram.totBusLat           21249165000                       # Total ticks spent in databus transfers (Tick)
system.mem_ctrls.dram.totMemAccLat       109645502844                       # Total ticks spent from burst creation until serviced by the DRAM (Tick)
system.mem_ctrls.dram.avgQLat                 7049.96                       # Average queueing delay per DRAM burst ((Tick/Count))
system.mem_ctrls.dram.avgBusLat               5000.00                       # Average bus latency per DRAM burst ((Tick/Count))
system.mem_ctrls.dram.avgMemAccLat           25799.96                       # Average memory access latency per DRAM burst ((Tick/Count))
system.mem_ctrls.dram.readRowHits             3548878                       # Number of row buffer hits during reads (Count)
system.mem_ctrls.dram.writeRowHits               1543                       # Number of row buffer hits during writes (Count)
system.mem_ctrls.dram.readRowHitRate            83.51                       # Row buffer hit rate for reads (Ratio)
system.mem_ctrls.dram.writeRowHitRate           90.87                       # Row buffer hit rate for writes (Ratio)
system.mem_ctrls.dram.bytesPerActivate::samples       701102                       # Bytes accessed per row activation (Byte)
system.mem_ctrls.dram.bytesPerActivate::mean   388.097504                       # Bytes accessed per row activation (Byte)
system.mem_ctrls.dram.bytesPerActivate::gmean   292.872239                       # Bytes accessed per row activation (Byte)
system.mem_ctrls.dram.bytesPerActivate::stdev   270.786342                       # Bytes accessed per row activation (Byte)
system.mem_ctrls.dram.bytesPerActivate::0-127        80069     11.42%     11.42% # Bytes accessed per row activation (Byte)
system.mem_ctrls.dram.bytesPerActivate::128-255       163582     23.33%     34.75% # Bytes accessed per row activation (Byte)
system.mem_ctrls.dram.bytesPerActivate::256-383       138935     19.82%     54.57% # Bytes accessed per row activation (Byte)
system.mem_ctrls.dram.bytesPerActivate::384-511        98814     14.09%     68.66% # Bytes accessed per row activation (Byte)
system.mem_ctrls.dram.bytesPerActivate::512-639        74455     10.62%     79.28% # Bytes accessed per row activation (Byte)
system.mem_ctrls.dram.bytesPerActivate::640-767        52335      7.46%     86.75% # Bytes accessed per row activation (Byte)
system.mem_ctrls.dram.bytesPerActivate::768-895        34984      4.99%     91.74% # Bytes accessed per row activation (Byte)
system.mem_ctrls.dram.bytesPerActivate::896-1023        23378      3.33%     95.07% # Bytes accessed per row activation (Byte)
system.mem_ctrls.dram.bytesPerActivate::1024-1151        34550      4.93%    100.00% # Bytes accessed per row activation (Byte)
system.mem_ctrls.dram.bytesPerActivate::total       701102                       # Bytes accessed per row activation (Byte)
system.mem_ctrls.dram.bytesRead             271989312                       # Total bytes read (Byte)
system.mem_ctrls.dram.bytesWritten             108672                       # Total bytes written (Byte)
system.mem_ctrls.dram.avgRdBW             2320.989069                       # Average DRAM read bandwidth in MiBytes/s ((Byte/Second))
system.mem_ctrls.dram.avgWrBW                0.927340                       # Average DRAM write bandwidth in MiBytes/s ((Byte/Second))
system.mem_ctrls.dram.peakBW                 12800.00                       # Theoretical peak bandwidth in MiByte/s ((Byte/Second))
system.mem_ctrls.dram.busUtil                   18.14                       # Data bus utilization in percentage (Ratio)
system.mem_ctrls.dram.busUtilRead               18.13                       # Data bus utilization in percentage for reads (Ratio)
system.mem_ctrls.dram.busUtilWrite               0.01                       # Data bus utilization in percentage for writes (Ratio)
system.mem_ctrls.dram.pageHitRate               83.51                       # Row buffer hit rate, read and write combined (Ratio)
system.mem_ctrls.dram.power_state.pwrStateResidencyTicks::UNDEFINED 117186813000                       # Cumulative time (in ticks) in various power states (Tick)
system.mem_ctrls.dram.rank0.actEnergy      2469918780                       # Energy for activate commands per rank (pJ) (Joule)
system.mem_ctrls.dram.rank0.preEnergy      1312777785                       # Energy for precharge commands per rank (pJ) (Joule)
system.mem_ctrls.dram.rank0.readEnergy    15216054000                       # Energy for read commands per rank (pJ) (Joule)
system.mem_ctrls.dram.rank0.writeEnergy       1310220                       # Energy for write commands per rank (pJ) (Joule)
system.mem_ctrls.dram.rank0.refreshEnergy 9250332000.000002                       # Energy for refresh commands per rank (pJ) (Joule)
system.mem_ctrls.dram.rank0.actBackEnergy  51618602070                       # Energy for active background per rank (pJ) (Joule)
system.mem_ctrls.dram.rank0.preBackEnergy   1531440000                       # Energy for precharge background per rank (pJ) (Joule)
system.mem_ctrls.dram.rank0.actPowerDownEnergy            0                       # Energy for active power-down per rank (pJ) (Joule)
system.mem_ctrls.dram.rank0.prePowerDownEnergy            0                       # Energy for precharge power-down per rank (pJ) (Joule)
system.mem_ctrls.dram.rank0.selfRefreshEnergy            0                       # Energy for self refresh per rank (pJ) (Joule)
system.mem_ctrls.dram.rank0.totalEnergy   81400434855                       # Total energy per rank (pJ) (Joule)
system.mem_ctrls.dram.rank0.averagePower   694.621116                       # Core power per rank (mW) (Watt)
system.mem_ctrls.dram.rank0.totalIdleTime            0                       # Total Idle time Per DRAM Rank (Tick)
system.mem_ctrls.dram.rank0.pwrStateTime::IDLE   3551747483                       # Time in different power states (Tick)
system.mem_ctrls.dram.rank0.pwrStateTime::REF   3913000000                       # Time in different power states (Tick)
system.mem_ctrls.dram.rank0.pwrStateTime::SREF            0                       # Time in different power states (Tick)
system.mem_ctrls.dram.rank0.pwrStateTime::PRE_PDN            0                       # Time in different power states (Tick)
system.mem_ctrls.dram.rank0.pwrStateTime::ACT 109722065517                       # Time in different power states (Tick)
system.mem_ctrls.dram.rank0.pwrStateTime::ACT_PDN            0                       # Time in different power states (Tick)
system.mem_ctrls.dram.rank1.actEnergy      2536006620                       # Energy for activate commands per rank (pJ) (Joule)
system.mem_ctrls.dram.rank1.preEnergy      1347904305                       # Energy for precharge commands per rank (pJ) (Joule)
system.mem_ctrls.dram.rank1.readEnergy    15127753620                       # Energy for read commands per rank (pJ) (Joule)
system.mem_ctrls.dram.rank1.writeEnergy       7553340                       # Energy for write commands per rank (pJ) (Joule)
system.mem_ctrls.dram.rank1.refreshEnergy 9250332000.000002                       # Energy for refresh commands per rank (pJ) (Joule)
system.mem_ctrls.dram.rank1.actBackEnergy  51576430050                       # Energy for active background per rank (pJ) (Joule)
system.mem_ctrls.dram.rank1.preBackEnergy   1566953280                       # Energy for precharge background per rank (pJ) (Joule)
system.mem_ctrls.dram.rank1.actPowerDownEnergy            0                       # Energy for active power-down per rank (pJ) (Joule)
system.mem_ctrls.dram.rank1.prePowerDownEnergy            0                       # Energy for precharge power-down per rank (pJ) (Joule)
system.mem_ctrls.dram.rank1.selfRefreshEnergy            0                       # Energy for self refresh per rank (pJ) (Joule)
system.mem_ctrls.dram.rank1.totalEnergy   81412933215                       # Total energy per rank (pJ) (Joule)
system.mem_ctrls.dram.rank1.averagePower   694.727770                       # Core power per rank (mW) (Watt)
system.mem_ctrls.dram.rank1.totalIdleTime            0                       # Total Idle time Per DRAM Rank (Tick)
system.mem_ctrls.dram.rank1.pwrStateTime::IDLE   3644578749                       # Time in different power states (Tick)
system.mem_ctrls.dram.rank1.pwrStateTime::REF   3913000000                       # Time in different power states (Tick)
system.mem_ctrls.dram.rank1.pwrStateTime::SREF            0                       # Time in different power states (Tick)
system.mem_ctrls.dram.rank1.pwrStateTime::PRE_PDN            0                       # Time in different power states (Tick)
system.mem_ctrls.dram.rank1.pwrStateTime::ACT 109629234251                       # Time in different power states (Tick)
system.mem_ctrls.dram.rank1.pwrStateTime::ACT_PDN            0                       # Time in different power states (Tick)
system.mem_ctrls.power_state.pwrStateResidencyTicks::UNDEFINED 117186813000                       # Cumulative time (in ticks) in various power states (Tick)
system.membus.transDist::ReadResp             4249803                       # Transaction distribution (Count)
system.membus.transDist::WritebackDirty          1710                       # Transaction distribution (Count)
system.membus.transDist::WritebackClean            38                       # Transaction distribution (Count)
system.membus.transDist::CleanEvict           4246604                       # Transaction distribution (Count)
system.membus.transDist::ReadExReq                 66                       # Transaction distribution (Count)
system.membus.transDist::ReadExResp                66                       # Transaction distribution (Count)
system.membus.transDist::ReadCleanReq             532                       # Transaction distribution (Count)
system.membus.transDist::ReadSharedReq        4249272                       # Transaction distribution (Count)
system.membus.pktCount_system.cpu.icache.mem_side_port::system.mem_ctrls.port         1101                       # Packet count per connected requestor and responder (Count)
system.membus.pktCount_system.cpu.icache.mem_side_port::total         1101                       # Packet count per connected requestor and responder (Count)
system.membus.pktCount_system.cpu.dcache.mem_side_port::system.mem_ctrls.port     12746990                       # Packet count per connected requestor and responder (Count)
system.membus.pktCount_system.cpu.dcache.mem_side_port::total     12746990                       # Packet count per connected requestor and responder (Count)
system.membus.pktCount::total                12748091                       # Packet count per connected requestor and responder (Count)
system.membus.pktSize_system.cpu.icache.mem_side_port::system.mem_ctrls.port        36416                       # Cumulative packet size per connected requestor and responder (Byte)
system.membus.pktSize_system.cpu.icache.mem_side_port::total        36416                       # Cumulative packet size per connected requestor and responder (Byte)
system.membus.pktSize_system.cpu.dcache.mem_side_port::system.mem_ctrls.port    272067072                       # Cumulative packet size per connected requestor and responder (Byte)
system.membus.pktSize_system.cpu.dcache.mem_side_port::total    272067072                       # Cumulative packet size per connected requestor and responder (Byte)
system.membus.pktSize::total                272103488                       # Cumulative packet size per connected requestor and responder (Byte)
system.membus.snoops                                0                       # Total snoops (Count)
system.membus.snoopTraffic                          0                       # Total snoop traffic (Byte)
system.membus.snoopFanout::samples            4249870                       # Request fanout histogram (Count)
system.membus.snoopFanout::mean                     0                       # Request fanout histogram (Count)
system.membus.snoopFanout::stdev                    0                       # Request fanout histogram (Count)
system.membus.snoopFanout::underflows               0      0.00%      0.00% # Request fanout histogram (Count)
system.membus.snoopFanout::0                  4249870    100.00%    100.00% # Request fanout histogram (Count)
system.membus.snoopFanout::1                        0      0.00%    100.00% # Request fanout histogram (Count)
system.membus.snoopFanout::2                        0      0.00%    100.00% # Request fanout histogram (Count)
system.membus.snoopFanout::3                        0      0.00%    100.00% # Request fanout histogram (Count)
system.membus.snoopFanout::4                        0      0.00%    100.00% # Request fanout histogram (Count)
system.membus.snoopFanout::overflows                0      0.00%    100.00% # Request fanout histogram (Count)
system.membus.snoopFanout::min_value                0                       # Request fanout histogram (Count)
system.membus.snoopFanout::max_value                0                       # Request fanout histogram (Count)
system.membus.snoopFanout::total              4249870                       # Request fanout histogram (Count)
system.membus.power_state.pwrStateResidencyTicks::UNDEFINED 117186813000                       # Cumulative time (in ticks) in various power states (Tick)
system.membus.reqLayer2.occupancy         11348044058                       # Layer occupancy (ticks) (Tick)
system.membus.reqLayer2.utilization               0.1                       # Layer utilization (Ratio)
system.membus.respLayer1.occupancy            2816998                       # Layer occupancy (ticks) (Tick)
system.membus.respLayer1.utilization              0.0                       # Layer utilization (Ratio)
system.membus.respLayer2.occupancy        22593044359                       # Layer occupancy (ticks) (Tick)
system.membus.respLayer2.utilization              0.2                       # Layer utilization (Ratio)
system.membus.snoop_filter.totRequests        8498222                       # Total number of requests made to the snoop filter. (Count)
system.membus.snoop_filter.hitSingleRequests      4248352                       # Number of requests hitting in the snoop filter with a single holder of the requested data. (Count)
system.membus.snoop_filter.hitMultiRequests            0                       # Number of requests hitting in the snoop filter with multiple (>1) holders of the requested data. (Count)
system.membus.snoop_filter.totSnoops                0                       # Total number of snoops made to the snoop filter. (Count)
system.membus.snoop_filter.hitSingleSnoops            0                       # Number of snoops hitting in the snoop filter with a single holder of the requested data. (Count)
system.membus.snoop_filter.hitMultiSnoops            0                       # Number of snoops hitting in the snoop filter with multiple (>1) holders of the requested data. (Count)
system.voltage_domain.voltage                       1                       # Voltage in Volts (Volt)
system.workload.inst.arm                            0                       # number of arm instructions executed (Count)
system.workload.inst.quiesce                        0                       # number of quiesce instructions executed (Count)
system.cpu.idleCycles                        74992070                       # Total number of cycles that the object has spent stopped (Unspecified)
system.cpu.tickCycles                        42194743                       # Number of cycles that the object actually ticked (Unspecified)

---------- End Simulation Statistics   ----------
