Global frequency set at 1000000000000 ticks per second
build/X86/mem/dram_interface.cc:690: warn: DRAM device capacity (8192 Mbytes) does not match the address range assigned (512 Mbytes)
0: system.remote_gdb: listening for remote gdb on port 7000
gem5 Simulator System.  https://www.gem5.org
gem5 is copyrighted software; use the --copyright option for details.

gem5 version 22.1.0.0
gem5 compiled Apr  8 2023 08:33:31
gem5 started Apr 11 2023 08:16:32
gem5 executing on ubuntu, pid 2319
command line: build/X86/gem5.opt configs/example/se1.py --cpu-type=DerivO3CPU --mem-type=DDR3_1600_8x8 --caches --l1d_size=64kB --l1i_size=64kB --cpu-clock=1GHz --cmd=/home/xxa/Desktop/Arch_Labs/Lab2/cs251a-microbench-master/lfsr --l1d-hwp-type=AMPMPrefetcher

**** REAL SIMULATION ****
warn: The `get_runtime_isa` function is deprecated. Please migrate away from using this function.
warn: The `get_runtime_isa` function is deprecated. Please migrate away from using this function.
warn: No dot file generated. Please install pydot to generate the dot file and pdf.
build/X86/sim/simulate.cc:192: info: Entering event queue @ 0.  Starting simulation...
build/X86/arch/x86/cpuid.cc:180: warn: x86 cpuid family 0x0000: unimplemented function 13
build/X86/sim/mem_state.cc:443: info: Increasing stack size by one page.
build/X86/sim/syscall_emul.cc:74: warn: ignoring syscall mprotect(...)
Exiting @ tick 31855000 because exiting with last active thread context




Global frequency set at 1000000000000 ticks per second
build/X86/mem/dram_interface.cc:690: warn: DRAM device capacity (8192 Mbytes) does not match the address range assigned (512 Mbytes)
build/X86/base/statistics.hh:280: warn: One of the stats is a legacy stat. Legacy stat is a stat that does not belong to any statistics::Group. Legacy stat is deprecated.
build/X86/base/statistics.hh:280: warn: One of the stats is a legacy stat. Legacy stat is a stat that does not belong to any statistics::Group. Legacy stat is deprecated.
0: system.remote_gdb: listening for remote gdb on port 7000
gem5 Simulator System.  https://www.gem5.org
gem5 is copyrighted software; use the --copyright option for details.

gem5 version 22.1.0.0
gem5 compiled Apr  8 2023 08:33:31
gem5 started Apr 11 2023 08:16:33
gem5 executing on ubuntu, pid 2322
command line: build/X86/gem5.opt configs/example/se.py --cpu-type=X86MinorCPU --mem-type=DDR3_1600_8x8 --caches --l1d_size=64kB --l1i_size=64kB --cpu-clock=1GHz --cmd=/home/xxa/Desktop/Arch_Labs/Lab2/cs251a-microbench-master/lfsr --l1d-hwp-type=AMPMPrefetcher

**** REAL SIMULATION ****
warn: The `get_runtime_isa` function is deprecated. Please migrate away from using this function.
warn: The `get_runtime_isa` function is deprecated. Please migrate away from using this function.
warn: No dot file generated. Please install pydot to generate the dot file and pdf.
build/X86/sim/simulate.cc:192: info: Entering event queue @ 0.  Starting simulation...
build/X86/sim/mem_state.cc:443: info: Increasing stack size by one page.
build/X86/sim/syscall_emul.cc:74: warn: ignoring syscall mprotect(...)
Exiting @ tick 57495000 because exiting with last active thread context




Global frequency set at 1000000000000 ticks per second
build/X86/mem/dram_interface.cc:690: warn: DRAM device capacity (8192 Mbytes) does not match the address range assigned (512 Mbytes)
0: system.remote_gdb: listening for remote gdb on port 7000
gem5 Simulator System.  https://www.gem5.org
gem5 is copyrighted software; use the --copyright option for details.

gem5 version 22.1.0.0
gem5 compiled Apr  8 2023 08:33:31
gem5 started Apr 11 2023 08:16:34
gem5 executing on ubuntu, pid 2364
command line: build/X86/gem5.opt configs/example/se2.py --cpu-type=DerivO3CPU --mem-type=DDR3_1600_8x8 --caches --l1d_size=64kB --l1i_size=64kB --cpu-clock=1GHz --cmd=/home/xxa/Desktop/Arch_Labs/Lab2/cs251a-microbench-master/lfsr --l1d-hwp-type=AMPMPrefetcher

**** REAL SIMULATION ****
warn: The `get_runtime_isa` function is deprecated. Please migrate away from using this function.
warn: The `get_runtime_isa` function is deprecated. Please migrate away from using this function.
warn: No dot file generated. Please install pydot to generate the dot file and pdf.
build/X86/sim/simulate.cc:192: info: Entering event queue @ 0.  Starting simulation...
build/X86/arch/x86/cpuid.cc:180: warn: x86 cpuid family 0x0000: unimplemented function 13
build/X86/sim/mem_state.cc:443: info: Increasing stack size by one page.
build/X86/sim/syscall_emul.cc:74: warn: ignoring syscall mprotect(...)
Exiting @ tick 33772000 because exiting with last active thread context




Global frequency set at 1000000000000 ticks per second
build/X86/mem/dram_interface.cc:690: warn: DRAM device capacity (8192 Mbytes) does not match the address range assigned (512 Mbytes)
0: system.remote_gdb: listening for remote gdb on port 7000
gem5 Simulator System.  https://www.gem5.org
gem5 is copyrighted software; use the --copyright option for details.

gem5 version 22.1.0.0
gem5 compiled Apr  8 2023 08:33:31
gem5 started Apr 11 2023 08:16:35
gem5 executing on ubuntu, pid 2383
command line: build/X86/gem5.opt configs/example/se1.py --cpu-type=DerivO3CPU --mem-type=DDR3_1600_8x8 --caches --l1d_size=64kB --l1i_size=64kB --cpu-clock=4GHz --cmd=/home/xxa/Desktop/Arch_Labs/Lab2/cs251a-microbench-master/lfsr --l1d-hwp-type=AMPMPrefetcher

**** REAL SIMULATION ****
warn: The `get_runtime_isa` function is deprecated. Please migrate away from using this function.
warn: The `get_runtime_isa` function is deprecated. Please migrate away from using this function.
warn: No dot file generated. Please install pydot to generate the dot file and pdf.
build/X86/sim/simulate.cc:192: info: Entering event queue @ 0.  Starting simulation...
build/X86/arch/x86/cpuid.cc:180: warn: x86 cpuid family 0x0000: unimplemented function 13
build/X86/sim/mem_state.cc:443: info: Increasing stack size by one page.
build/X86/sim/syscall_emul.cc:74: warn: ignoring syscall mprotect(...)
Exiting @ tick 25208500 because exiting with last active thread context




Global frequency set at 1000000000000 ticks per second
build/X86/mem/dram_interface.cc:690: warn: DRAM device capacity (8192 Mbytes) does not match the address range assigned (512 Mbytes)
0: system.remote_gdb: listening for remote gdb on port 7000
gem5 Simulator System.  https://www.gem5.org
gem5 is copyrighted software; use the --copyright option for details.

gem5 version 22.1.0.0
gem5 compiled Apr  8 2023 08:33:31
gem5 started Apr 11 2023 08:16:35
gem5 executing on ubuntu, pid 2400
command line: build/X86/gem5.opt configs/example/se1.py --cpu-type=DerivO3CPU --mem-type=DDR3_1600_8x8 --caches --l1d_size=64kB --l1i_size=64kB --l2cache --l2_size=256kB --cpu-clock=1GHz --cmd=/home/xxa/Desktop/Arch_Labs/Lab2/cs251a-microbench-master/lfsr --l1d-hwp-type=AMPMPrefetcher --l2-hwp-type=AMPMPrefetcher

**** REAL SIMULATION ****
warn: The `get_runtime_isa` function is deprecated. Please migrate away from using this function.
warn: The `get_runtime_isa` function is deprecated. Please migrate away from using this function.
warn: No dot file generated. Please install pydot to generate the dot file and pdf.
build/X86/sim/simulate.cc:192: info: Entering event queue @ 0.  Starting simulation...
build/X86/arch/x86/cpuid.cc:180: warn: x86 cpuid family 0x0000: unimplemented function 13
build/X86/sim/mem_state.cc:443: info: Increasing stack size by one page.
build/X86/sim/syscall_emul.cc:74: warn: ignoring syscall mprotect(...)
Exiting @ tick 40502000 because exiting with last active thread context




Global frequency set at 1000000000000 ticks per second
build/X86/mem/dram_interface.cc:690: warn: DRAM device capacity (8192 Mbytes) does not match the address range assigned (512 Mbytes)
0: system.remote_gdb: listening for remote gdb on port 7000
gem5 Simulator System.  https://www.gem5.org
gem5 is copyrighted software; use the --copyright option for details.

gem5 version 22.1.0.0
gem5 compiled Apr  8 2023 08:33:31
gem5 started Apr 11 2023 08:16:36
gem5 executing on ubuntu, pid 2413
command line: build/X86/gem5.opt configs/example/se1.py --cpu-type=DerivO3CPU --mem-type=DDR3_1600_8x8 --caches --l1d_size=64kB --l1i_size=64kB --l2cache --l2_size=2MB --cpu-clock=1GHz --cmd=/home/xxa/Desktop/Arch_Labs/Lab2/cs251a-microbench-master/lfsr --l1d-hwp-type=AMPMPrefetcher --l2-hwp-type=AMPMPrefetcher

**** REAL SIMULATION ****
warn: The `get_runtime_isa` function is deprecated. Please migrate away from using this function.
warn: The `get_runtime_isa` function is deprecated. Please migrate away from using this function.
warn: No dot file generated. Please install pydot to generate the dot file and pdf.
build/X86/sim/simulate.cc:192: info: Entering event queue @ 0.  Starting simulation...
build/X86/arch/x86/cpuid.cc:180: warn: x86 cpuid family 0x0000: unimplemented function 13
build/X86/sim/mem_state.cc:443: info: Increasing stack size by one page.
build/X86/sim/syscall_emul.cc:74: warn: ignoring syscall mprotect(...)
Exiting @ tick 40502000 because exiting with last active thread context




Global frequency set at 1000000000000 ticks per second
build/X86/mem/dram_interface.cc:690: warn: DRAM device capacity (8192 Mbytes) does not match the address range assigned (512 Mbytes)
0: system.remote_gdb: listening for remote gdb on port 7000
gem5 Simulator System.  https://www.gem5.org
gem5 is copyrighted software; use the --copyright option for details.

gem5 version 22.1.0.0
gem5 compiled Apr  8 2023 08:33:31
gem5 started Apr 11 2023 08:16:37
gem5 executing on ubuntu, pid 2430
command line: build/X86/gem5.opt configs/example/se1.py --cpu-type=DerivO3CPU --mem-type=DDR3_1600_8x8 --caches --l1d_size=64kB --l1i_size=64kB --l2cache --l2_size=16MB --cpu-clock=1GHz --cmd=/home/xxa/Desktop/Arch_Labs/Lab2/cs251a-microbench-master/lfsr --l1d-hwp-type=AMPMPrefetcher --l2-hwp-type=AMPMPrefetcher

**** REAL SIMULATION ****
warn: The `get_runtime_isa` function is deprecated. Please migrate away from using this function.
warn: The `get_runtime_isa` function is deprecated. Please migrate away from using this function.
warn: No dot file generated. Please install pydot to generate the dot file and pdf.
build/X86/sim/simulate.cc:192: info: Entering event queue @ 0.  Starting simulation...
build/X86/arch/x86/cpuid.cc:180: warn: x86 cpuid family 0x0000: unimplemented function 13
build/X86/sim/mem_state.cc:443: info: Increasing stack size by one page.
build/X86/sim/syscall_emul.cc:74: warn: ignoring syscall mprotect(...)
Exiting @ tick 40502000 because exiting with last active thread context








Global frequency set at 1000000000000 ticks per second
build/X86/mem/dram_interface.cc:690: warn: DRAM device capacity (8192 Mbytes) does not match the address range assigned (512 Mbytes)
0: system.remote_gdb: listening for remote gdb on port 7000
gem5 Simulator System.  https://www.gem5.org
gem5 is copyrighted software; use the --copyright option for details.

gem5 version 22.1.0.0
gem5 compiled Apr  8 2023 08:33:31
gem5 started Apr 11 2023 08:16:39
gem5 executing on ubuntu, pid 2444
command line: build/X86/gem5.opt configs/example/se1.py --cpu-type=DerivO3CPU --mem-type=DDR3_1600_8x8 --caches --l1d_size=64kB --l1i_size=64kB --cpu-clock=1GHz --cmd=/home/xxa/Desktop/Arch_Labs/Lab2/cs251a-microbench-master/merge --l1d-hwp-type=AMPMPrefetcher

**** REAL SIMULATION ****
warn: The `get_runtime_isa` function is deprecated. Please migrate away from using this function.
warn: The `get_runtime_isa` function is deprecated. Please migrate away from using this function.
warn: No dot file generated. Please install pydot to generate the dot file and pdf.
build/X86/sim/simulate.cc:192: info: Entering event queue @ 0.  Starting simulation...
build/X86/arch/x86/cpuid.cc:180: warn: x86 cpuid family 0x0000: unimplemented function 13
build/X86/sim/mem_state.cc:443: info: Increasing stack size by one page.
build/X86/sim/syscall_emul.cc:74: warn: ignoring syscall mprotect(...)
Exiting @ tick 1763818000 because exiting with last active thread context




Global frequency set at 1000000000000 ticks per second
build/X86/mem/dram_interface.cc:690: warn: DRAM device capacity (8192 Mbytes) does not match the address range assigned (512 Mbytes)
build/X86/base/statistics.hh:280: warn: One of the stats is a legacy stat. Legacy stat is a stat that does not belong to any statistics::Group. Legacy stat is deprecated.
build/X86/base/statistics.hh:280: warn: One of the stats is a legacy stat. Legacy stat is a stat that does not belong to any statistics::Group. Legacy stat is deprecated.
0: system.remote_gdb: listening for remote gdb on port 7000
gem5 Simulator System.  https://www.gem5.org
gem5 is copyrighted software; use the --copyright option for details.

gem5 version 22.1.0.0
gem5 compiled Apr  8 2023 08:33:31
gem5 started Apr 11 2023 08:16:58
gem5 executing on ubuntu, pid 2612
command line: build/X86/gem5.opt configs/example/se.py --cpu-type=X86MinorCPU --mem-type=DDR3_1600_8x8 --caches --l1d_size=64kB --l1i_size=64kB --cpu-clock=1GHz --cmd=/home/xxa/Desktop/Arch_Labs/Lab2/cs251a-microbench-master/merge --l1d-hwp-type=AMPMPrefetcher

**** REAL SIMULATION ****
warn: The `get_runtime_isa` function is deprecated. Please migrate away from using this function.
warn: The `get_runtime_isa` function is deprecated. Please migrate away from using this function.
warn: No dot file generated. Please install pydot to generate the dot file and pdf.
build/X86/sim/simulate.cc:192: info: Entering event queue @ 0.  Starting simulation...
build/X86/sim/mem_state.cc:443: info: Increasing stack size by one page.
build/X86/sim/syscall_emul.cc:74: warn: ignoring syscall mprotect(...)
Exiting @ tick 4651494000 because exiting with last active thread context




Global frequency set at 1000000000000 ticks per second
build/X86/mem/dram_interface.cc:690: warn: DRAM device capacity (8192 Mbytes) does not match the address range assigned (512 Mbytes)
0: system.remote_gdb: listening for remote gdb on port 7000
gem5 Simulator System.  https://www.gem5.org
gem5 is copyrighted software; use the --copyright option for details.

gem5 version 22.1.0.0
gem5 compiled Apr  8 2023 08:33:31
gem5 started Apr 11 2023 08:17:13
gem5 executing on ubuntu, pid 2756
command line: build/X86/gem5.opt configs/example/se2.py --cpu-type=DerivO3CPU --mem-type=DDR3_1600_8x8 --caches --l1d_size=64kB --l1i_size=64kB --cpu-clock=1GHz --cmd=/home/xxa/Desktop/Arch_Labs/Lab2/cs251a-microbench-master/merge --l1d-hwp-type=AMPMPrefetcher

**** REAL SIMULATION ****
warn: The `get_runtime_isa` function is deprecated. Please migrate away from using this function.
warn: The `get_runtime_isa` function is deprecated. Please migrate away from using this function.
warn: No dot file generated. Please install pydot to generate the dot file and pdf.
build/X86/sim/simulate.cc:192: info: Entering event queue @ 0.  Starting simulation...
build/X86/arch/x86/cpuid.cc:180: warn: x86 cpuid family 0x0000: unimplemented function 13
build/X86/sim/mem_state.cc:443: info: Increasing stack size by one page.
build/X86/sim/syscall_emul.cc:74: warn: ignoring syscall mprotect(...)
Exiting @ tick 3058488000 because exiting with last active thread context




Global frequency set at 1000000000000 ticks per second
build/X86/mem/dram_interface.cc:690: warn: DRAM device capacity (8192 Mbytes) does not match the address range assigned (512 Mbytes)
0: system.remote_gdb: listening for remote gdb on port 7000
gem5 Simulator System.  https://www.gem5.org
gem5 is copyrighted software; use the --copyright option for details.

gem5 version 22.1.0.0
gem5 compiled Apr  8 2023 08:33:31
gem5 started Apr 11 2023 08:17:36
gem5 executing on ubuntu, pid 2795
command line: build/X86/gem5.opt configs/example/se1.py --cpu-type=DerivO3CPU --mem-type=DDR3_1600_8x8 --caches --l1d_size=64kB --l1i_size=64kB --cpu-clock=4GHz --cmd=/home/xxa/Desktop/Arch_Labs/Lab2/cs251a-microbench-master/merge --l1d-hwp-type=AMPMPrefetcher

**** REAL SIMULATION ****
warn: The `get_runtime_isa` function is deprecated. Please migrate away from using this function.
warn: The `get_runtime_isa` function is deprecated. Please migrate away from using this function.
warn: No dot file generated. Please install pydot to generate the dot file and pdf.
build/X86/sim/simulate.cc:192: info: Entering event queue @ 0.  Starting simulation...
build/X86/arch/x86/cpuid.cc:180: warn: x86 cpuid family 0x0000: unimplemented function 13
build/X86/sim/mem_state.cc:443: info: Increasing stack size by one page.
build/X86/sim/syscall_emul.cc:74: warn: ignoring syscall mprotect(...)
Exiting @ tick 469566500 because exiting with last active thread context




Global frequency set at 1000000000000 ticks per second
build/X86/mem/dram_interface.cc:690: warn: DRAM device capacity (8192 Mbytes) does not match the address range assigned (512 Mbytes)
0: system.remote_gdb: listening for remote gdb on port 7000
gem5 Simulator System.  https://www.gem5.org
gem5 is copyrighted software; use the --copyright option for details.

gem5 version 22.1.0.0
gem5 compiled Apr  8 2023 08:33:31
gem5 started Apr 11 2023 08:18:07
gem5 executing on ubuntu, pid 2842
command line: build/X86/gem5.opt configs/example/se1.py --cpu-type=DerivO3CPU --mem-type=DDR3_1600_8x8 --caches --l1d_size=64kB --l1i_size=64kB --l2cache --l2_size=256kB --cpu-clock=1GHz --cmd=/home/xxa/Desktop/Arch_Labs/Lab2/cs251a-microbench-master/merge --l1d-hwp-type=AMPMPrefetcher --l2-hwp-type=AMPMPrefetcher

**** REAL SIMULATION ****
warn: The `get_runtime_isa` function is deprecated. Please migrate away from using this function.
warn: The `get_runtime_isa` function is deprecated. Please migrate away from using this function.
warn: No dot file generated. Please install pydot to generate the dot file and pdf.
build/X86/sim/simulate.cc:192: info: Entering event queue @ 0.  Starting simulation...
build/X86/arch/x86/cpuid.cc:180: warn: x86 cpuid family 0x0000: unimplemented function 13
build/X86/sim/mem_state.cc:443: info: Increasing stack size by one page.
build/X86/sim/syscall_emul.cc:74: warn: ignoring syscall mprotect(...)
Exiting @ tick 1771324000 because exiting with last active thread context




Global frequency set at 1000000000000 ticks per second
build/X86/mem/dram_interface.cc:690: warn: DRAM device capacity (8192 Mbytes) does not match the address range assigned (512 Mbytes)
0: system.remote_gdb: listening for remote gdb on port 7000
gem5 Simulator System.  https://www.gem5.org
gem5 is copyrighted software; use the --copyright option for details.

gem5 version 22.1.0.0
gem5 compiled Apr  8 2023 08:33:31
gem5 started Apr 11 2023 08:18:41
gem5 executing on ubuntu, pid 2884
command line: build/X86/gem5.opt configs/example/se1.py --cpu-type=DerivO3CPU --mem-type=DDR3_1600_8x8 --caches --l1d_size=64kB --l1i_size=64kB --l2cache --l2_size=2MB --cpu-clock=1GHz --cmd=/home/xxa/Desktop/Arch_Labs/Lab2/cs251a-microbench-master/merge --l1d-hwp-type=AMPMPrefetcher --l2-hwp-type=AMPMPrefetcher

**** REAL SIMULATION ****
warn: The `get_runtime_isa` function is deprecated. Please migrate away from using this function.
warn: The `get_runtime_isa` function is deprecated. Please migrate away from using this function.
warn: No dot file generated. Please install pydot to generate the dot file and pdf.
build/X86/sim/simulate.cc:192: info: Entering event queue @ 0.  Starting simulation...
build/X86/arch/x86/cpuid.cc:180: warn: x86 cpuid family 0x0000: unimplemented function 13
build/X86/sim/mem_state.cc:443: info: Increasing stack size by one page.
build/X86/sim/syscall_emul.cc:74: warn: ignoring syscall mprotect(...)
Exiting @ tick 1771324000 because exiting with last active thread context




Global frequency set at 1000000000000 ticks per second
build/X86/mem/dram_interface.cc:690: warn: DRAM device capacity (8192 Mbytes) does not match the address range assigned (512 Mbytes)
0: system.remote_gdb: listening for remote gdb on port 7000
gem5 Simulator System.  https://www.gem5.org
gem5 is copyrighted software; use the --copyright option for details.

gem5 version 22.1.0.0
gem5 compiled Apr  8 2023 08:33:31
gem5 started Apr 11 2023 08:19:06
gem5 executing on ubuntu, pid 2925
command line: build/X86/gem5.opt configs/example/se1.py --cpu-type=DerivO3CPU --mem-type=DDR3_1600_8x8 --caches --l1d_size=64kB --l1i_size=64kB --l2cache --l2_size=16MB --cpu-clock=1GHz --cmd=/home/xxa/Desktop/Arch_Labs/Lab2/cs251a-microbench-master/merge --l1d-hwp-type=AMPMPrefetcher --l2-hwp-type=AMPMPrefetcher

**** REAL SIMULATION ****
warn: The `get_runtime_isa` function is deprecated. Please migrate away from using this function.
warn: The `get_runtime_isa` function is deprecated. Please migrate away from using this function.
warn: No dot file generated. Please install pydot to generate the dot file and pdf.
build/X86/sim/simulate.cc:192: info: Entering event queue @ 0.  Starting simulation...
build/X86/arch/x86/cpuid.cc:180: warn: x86 cpuid family 0x0000: unimplemented function 13
build/X86/sim/mem_state.cc:443: info: Increasing stack size by one page.
build/X86/sim/syscall_emul.cc:74: warn: ignoring syscall mprotect(...)
Exiting @ tick 1771324000 because exiting with last active thread context








Global frequency set at 1000000000000 ticks per second
build/X86/mem/dram_interface.cc:690: warn: DRAM device capacity (8192 Mbytes) does not match the address range assigned (512 Mbytes)
0: system.remote_gdb: listening for remote gdb on port 7000
gem5 Simulator System.  https://www.gem5.org
gem5 is copyrighted software; use the --copyright option for details.

gem5 version 22.1.0.0
gem5 compiled Apr  8 2023 08:33:31
gem5 started Apr 11 2023 08:19:25
gem5 executing on ubuntu, pid 2961
command line: build/X86/gem5.opt configs/example/se1.py --cpu-type=DerivO3CPU --mem-type=DDR3_1600_8x8 --caches --l1d_size=64kB --l1i_size=64kB --cpu-clock=1GHz --cmd=/home/xxa/Desktop/Arch_Labs/Lab2/cs251a-microbench-master/mm --l1d-hwp-type=AMPMPrefetcher

**** REAL SIMULATION ****
warn: The `get_runtime_isa` function is deprecated. Please migrate away from using this function.
warn: The `get_runtime_isa` function is deprecated. Please migrate away from using this function.
warn: No dot file generated. Please install pydot to generate the dot file and pdf.
build/X86/sim/simulate.cc:192: info: Entering event queue @ 0.  Starting simulation...
build/X86/arch/x86/cpuid.cc:180: warn: x86 cpuid family 0x0000: unimplemented function 13
build/X86/sim/mem_state.cc:443: info: Increasing stack size by one page.
build/X86/sim/syscall_emul.cc:74: warn: ignoring syscall mprotect(...)
Exiting @ tick 3692900000 because exiting with last active thread context




Global frequency set at 1000000000000 ticks per second
build/X86/mem/dram_interface.cc:690: warn: DRAM device capacity (8192 Mbytes) does not match the address range assigned (512 Mbytes)
build/X86/base/statistics.hh:280: warn: One of the stats is a legacy stat. Legacy stat is a stat that does not belong to any statistics::Group. Legacy stat is deprecated.
build/X86/base/statistics.hh:280: warn: One of the stats is a legacy stat. Legacy stat is a stat that does not belong to any statistics::Group. Legacy stat is deprecated.
0: system.remote_gdb: listening for remote gdb on port 7000
gem5 Simulator System.  https://www.gem5.org
gem5 is copyrighted software; use the --copyright option for details.

gem5 version 22.1.0.0
gem5 compiled Apr  8 2023 08:33:31
gem5 started Apr 11 2023 08:20:11
gem5 executing on ubuntu, pid 3002
command line: build/X86/gem5.opt configs/example/se.py --cpu-type=X86MinorCPU --mem-type=DDR3_1600_8x8 --caches --l1d_size=64kB --l1i_size=64kB --cpu-clock=1GHz --cmd=/home/xxa/Desktop/Arch_Labs/Lab2/cs251a-microbench-master/mm --l1d-hwp-type=AMPMPrefetcher

**** REAL SIMULATION ****
warn: The `get_runtime_isa` function is deprecated. Please migrate away from using this function.
warn: The `get_runtime_isa` function is deprecated. Please migrate away from using this function.
warn: No dot file generated. Please install pydot to generate the dot file and pdf.
build/X86/sim/simulate.cc:192: info: Entering event queue @ 0.  Starting simulation...
build/X86/sim/mem_state.cc:443: info: Increasing stack size by one page.
build/X86/sim/syscall_emul.cc:74: warn: ignoring syscall mprotect(...)
Exiting @ tick 20566579000 because exiting with last active thread context




Global frequency set at 1000000000000 ticks per second
build/X86/mem/dram_interface.cc:690: warn: DRAM device capacity (8192 Mbytes) does not match the address range assigned (512 Mbytes)
0: system.remote_gdb: listening for remote gdb on port 7000
gem5 Simulator System.  https://www.gem5.org
gem5 is copyrighted software; use the --copyright option for details.

gem5 version 22.1.0.0
gem5 compiled Apr  8 2023 08:33:31
gem5 started Apr 11 2023 08:21:09
gem5 executing on ubuntu, pid 3063
command line: build/X86/gem5.opt configs/example/se2.py --cpu-type=DerivO3CPU --mem-type=DDR3_1600_8x8 --caches --l1d_size=64kB --l1i_size=64kB --cpu-clock=1GHz --cmd=/home/xxa/Desktop/Arch_Labs/Lab2/cs251a-microbench-master/mm --l1d-hwp-type=AMPMPrefetcher

**** REAL SIMULATION ****
warn: The `get_runtime_isa` function is deprecated. Please migrate away from using this function.
warn: The `get_runtime_isa` function is deprecated. Please migrate away from using this function.
warn: No dot file generated. Please install pydot to generate the dot file and pdf.
build/X86/sim/simulate.cc:192: info: Entering event queue @ 0.  Starting simulation...
build/X86/arch/x86/cpuid.cc:180: warn: x86 cpuid family 0x0000: unimplemented function 13
build/X86/sim/mem_state.cc:443: info: Increasing stack size by one page.
build/X86/sim/syscall_emul.cc:74: warn: ignoring syscall mprotect(...)
Exiting @ tick 7430683000 because exiting with last active thread context




Global frequency set at 1000000000000 ticks per second
build/X86/mem/dram_interface.cc:690: warn: DRAM device capacity (8192 Mbytes) does not match the address range assigned (512 Mbytes)
0: system.remote_gdb: listening for remote gdb on port 7000
gem5 Simulator System.  https://www.gem5.org
gem5 is copyrighted software; use the --copyright option for details.

gem5 version 22.1.0.0
gem5 compiled Apr  8 2023 08:33:31
gem5 started Apr 11 2023 08:22:06
gem5 executing on ubuntu, pid 3108
command line: build/X86/gem5.opt configs/example/se1.py --cpu-type=DerivO3CPU --mem-type=DDR3_1600_8x8 --caches --l1d_size=64kB --l1i_size=64kB --cpu-clock=4GHz --cmd=/home/xxa/Desktop/Arch_Labs/Lab2/cs251a-microbench-master/mm --l1d-hwp-type=AMPMPrefetcher

**** REAL SIMULATION ****
warn: The `get_runtime_isa` function is deprecated. Please migrate away from using this function.
warn: The `get_runtime_isa` function is deprecated. Please migrate away from using this function.
warn: No dot file generated. Please install pydot to generate the dot file and pdf.
build/X86/sim/simulate.cc:192: info: Entering event queue @ 0.  Starting simulation...
build/X86/arch/x86/cpuid.cc:180: warn: x86 cpuid family 0x0000: unimplemented function 13
build/X86/sim/mem_state.cc:443: info: Increasing stack size by one page.
build/X86/sim/syscall_emul.cc:74: warn: ignoring syscall mprotect(...)
Exiting @ tick 1719728000 because exiting with last active thread context




Global frequency set at 1000000000000 ticks per second
build/X86/mem/dram_interface.cc:690: warn: DRAM device capacity (8192 Mbytes) does not match the address range assigned (512 Mbytes)
0: system.remote_gdb: listening for remote gdb on port 7000
gem5 Simulator System.  https://www.gem5.org
gem5 is copyrighted software; use the --copyright option for details.

gem5 version 22.1.0.0
gem5 compiled Apr  8 2023 08:33:31
gem5 started Apr 11 2023 08:22:57
gem5 executing on ubuntu, pid 3161
command line: build/X86/gem5.opt configs/example/se1.py --cpu-type=DerivO3CPU --mem-type=DDR3_1600_8x8 --caches --l1d_size=64kB --l1i_size=64kB --l2cache --l2_size=256kB --cpu-clock=1GHz --cmd=/home/xxa/Desktop/Arch_Labs/Lab2/cs251a-microbench-master/mm --l1d-hwp-type=AMPMPrefetcher --l2-hwp-type=AMPMPrefetcher

**** REAL SIMULATION ****
warn: The `get_runtime_isa` function is deprecated. Please migrate away from using this function.
warn: The `get_runtime_isa` function is deprecated. Please migrate away from using this function.
warn: No dot file generated. Please install pydot to generate the dot file and pdf.
build/X86/sim/simulate.cc:192: info: Entering event queue @ 0.  Starting simulation...
build/X86/arch/x86/cpuid.cc:180: warn: x86 cpuid family 0x0000: unimplemented function 13
build/X86/sim/mem_state.cc:443: info: Increasing stack size by one page.
build/X86/sim/syscall_emul.cc:74: warn: ignoring syscall mprotect(...)
Exiting @ tick 3265103000 because exiting with last active thread context




Global frequency set at 1000000000000 ticks per second
build/X86/mem/dram_interface.cc:690: warn: DRAM device capacity (8192 Mbytes) does not match the address range assigned (512 Mbytes)
0: system.remote_gdb: listening for remote gdb on port 7000
gem5 Simulator System.  https://www.gem5.org
gem5 is copyrighted software; use the --copyright option for details.

gem5 version 22.1.0.0
gem5 compiled Apr  8 2023 08:33:31
gem5 started Apr 11 2023 08:23:41
gem5 executing on ubuntu, pid 3208
command line: build/X86/gem5.opt configs/example/se1.py --cpu-type=DerivO3CPU --mem-type=DDR3_1600_8x8 --caches --l1d_size=64kB --l1i_size=64kB --l2cache --l2_size=2MB --cpu-clock=1GHz --cmd=/home/xxa/Desktop/Arch_Labs/Lab2/cs251a-microbench-master/mm --l1d-hwp-type=AMPMPrefetcher --l2-hwp-type=AMPMPrefetcher

**** REAL SIMULATION ****
warn: The `get_runtime_isa` function is deprecated. Please migrate away from using this function.
warn: The `get_runtime_isa` function is deprecated. Please migrate away from using this function.
warn: No dot file generated. Please install pydot to generate the dot file and pdf.
build/X86/sim/simulate.cc:192: info: Entering event queue @ 0.  Starting simulation...
build/X86/arch/x86/cpuid.cc:180: warn: x86 cpuid family 0x0000: unimplemented function 13
build/X86/sim/mem_state.cc:443: info: Increasing stack size by one page.
build/X86/sim/syscall_emul.cc:74: warn: ignoring syscall mprotect(...)
Exiting @ tick 3265103000 because exiting with last active thread context




Global frequency set at 1000000000000 ticks per second
build/X86/mem/dram_interface.cc:690: warn: DRAM device capacity (8192 Mbytes) does not match the address range assigned (512 Mbytes)
0: system.remote_gdb: listening for remote gdb on port 7000
gem5 Simulator System.  https://www.gem5.org
gem5 is copyrighted software; use the --copyright option for details.

gem5 version 22.1.0.0
gem5 compiled Apr  8 2023 08:33:31
gem5 started Apr 11 2023 08:24:29
gem5 executing on ubuntu, pid 3375
command line: build/X86/gem5.opt configs/example/se1.py --cpu-type=DerivO3CPU --mem-type=DDR3_1600_8x8 --caches --l1d_size=64kB --l1i_size=64kB --l2cache --l2_size=16MB --cpu-clock=1GHz --cmd=/home/xxa/Desktop/Arch_Labs/Lab2/cs251a-microbench-master/mm --l1d-hwp-type=AMPMPrefetcher --l2-hwp-type=AMPMPrefetcher

**** REAL SIMULATION ****
warn: The `get_runtime_isa` function is deprecated. Please migrate away from using this function.
warn: The `get_runtime_isa` function is deprecated. Please migrate away from using this function.
warn: No dot file generated. Please install pydot to generate the dot file and pdf.
build/X86/sim/simulate.cc:192: info: Entering event queue @ 0.  Starting simulation...
build/X86/arch/x86/cpuid.cc:180: warn: x86 cpuid family 0x0000: unimplemented function 13
build/X86/sim/mem_state.cc:443: info: Increasing stack size by one page.
build/X86/sim/syscall_emul.cc:74: warn: ignoring syscall mprotect(...)
Exiting @ tick 3265103000 because exiting with last active thread context








Global frequency set at 1000000000000 ticks per second
build/X86/mem/dram_interface.cc:690: warn: DRAM device capacity (8192 Mbytes) does not match the address range assigned (512 Mbytes)
0: system.remote_gdb: listening for remote gdb on port 7000
gem5 Simulator System.  https://www.gem5.org
gem5 is copyrighted software; use the --copyright option for details.

gem5 version 22.1.0.0
gem5 compiled Apr  8 2023 08:33:31
gem5 started Apr 11 2023 08:25:14
gem5 executing on ubuntu, pid 3429
command line: build/X86/gem5.opt configs/example/se1.py --cpu-type=DerivO3CPU --mem-type=DDR3_1600_8x8 --caches --l1d_size=64kB --l1i_size=64kB --cpu-clock=1GHz --cmd=/home/xxa/Desktop/Arch_Labs/Lab2/cs251a-microbench-master/sieve --l1d-hwp-type=AMPMPrefetcher

**** REAL SIMULATION ****
warn: The `get_runtime_isa` function is deprecated. Please migrate away from using this function.
warn: The `get_runtime_isa` function is deprecated. Please migrate away from using this function.
warn: No dot file generated. Please install pydot to generate the dot file and pdf.
build/X86/sim/simulate.cc:192: info: Entering event queue @ 0.  Starting simulation...
build/X86/arch/x86/cpuid.cc:180: warn: x86 cpuid family 0x0000: unimplemented function 13
build/X86/sim/mem_state.cc:443: info: Increasing stack size by one page.
build/X86/sim/syscall_emul.cc:74: warn: ignoring syscall mprotect(...)
Exiting @ tick 35582936000 because exiting with last active thread context




Global frequency set at 1000000000000 ticks per second
build/X86/mem/dram_interface.cc:690: warn: DRAM device capacity (8192 Mbytes) does not match the address range assigned (512 Mbytes)
build/X86/base/statistics.hh:280: warn: One of the stats is a legacy stat. Legacy stat is a stat that does not belong to any statistics::Group. Legacy stat is deprecated.
build/X86/base/statistics.hh:280: warn: One of the stats is a legacy stat. Legacy stat is a stat that does not belong to any statistics::Group. Legacy stat is deprecated.
0: system.remote_gdb: listening for remote gdb on port 7000
gem5 Simulator System.  https://www.gem5.org
gem5 is copyrighted software; use the --copyright option for details.

gem5 version 22.1.0.0
gem5 compiled Apr  8 2023 08:33:31
gem5 started Apr 11 2023 08:27:03
gem5 executing on ubuntu, pid 3518
command line: build/X86/gem5.opt configs/example/se.py --cpu-type=X86MinorCPU --mem-type=DDR3_1600_8x8 --caches --l1d_size=64kB --l1i_size=64kB --cpu-clock=1GHz --cmd=/home/xxa/Desktop/Arch_Labs/Lab2/cs251a-microbench-master/sieve --l1d-hwp-type=AMPMPrefetcher

**** REAL SIMULATION ****
warn: The `get_runtime_isa` function is deprecated. Please migrate away from using this function.
warn: The `get_runtime_isa` function is deprecated. Please migrate away from using this function.
warn: No dot file generated. Please install pydot to generate the dot file and pdf.
build/X86/sim/simulate.cc:192: info: Entering event queue @ 0.  Starting simulation...
build/X86/sim/mem_state.cc:443: info: Increasing stack size by one page.
build/X86/sim/syscall_emul.cc:74: warn: ignoring syscall mprotect(...)
Exiting @ tick 52253930000 because exiting with last active thread context




Global frequency set at 1000000000000 ticks per second
build/X86/mem/dram_interface.cc:690: warn: DRAM device capacity (8192 Mbytes) does not match the address range assigned (512 Mbytes)
0: system.remote_gdb: listening for remote gdb on port 7000
gem5 Simulator System.  https://www.gem5.org
gem5 is copyrighted software; use the --copyright option for details.

gem5 version 22.1.0.0
gem5 compiled Apr  8 2023 08:33:31
gem5 started Apr 11 2023 08:29:11
gem5 executing on ubuntu, pid 3566
command line: build/X86/gem5.opt configs/example/se2.py --cpu-type=DerivO3CPU --mem-type=DDR3_1600_8x8 --caches --l1d_size=64kB --l1i_size=64kB --cpu-clock=1GHz --cmd=/home/xxa/Desktop/Arch_Labs/Lab2/cs251a-microbench-master/sieve --l1d-hwp-type=AMPMPrefetcher

**** REAL SIMULATION ****
warn: The `get_runtime_isa` function is deprecated. Please migrate away from using this function.
warn: The `get_runtime_isa` function is deprecated. Please migrate away from using this function.
warn: No dot file generated. Please install pydot to generate the dot file and pdf.
build/X86/sim/simulate.cc:192: info: Entering event queue @ 0.  Starting simulation...
build/X86/arch/x86/cpuid.cc:180: warn: x86 cpuid family 0x0000: unimplemented function 13
build/X86/sim/mem_state.cc:443: info: Increasing stack size by one page.
build/X86/sim/syscall_emul.cc:74: warn: ignoring syscall mprotect(...)
Exiting @ tick 37086565000 because exiting with last active thread context




Global frequency set at 1000000000000 ticks per second
build/X86/mem/dram_interface.cc:690: warn: DRAM device capacity (8192 Mbytes) does not match the address range assigned (512 Mbytes)
0: system.remote_gdb: listening for remote gdb on port 7000
gem5 Simulator System.  https://www.gem5.org
gem5 is copyrighted software; use the --copyright option for details.

gem5 version 22.1.0.0
gem5 compiled Apr  8 2023 08:33:31
gem5 started Apr 11 2023 08:31:08
gem5 executing on ubuntu, pid 3621
command line: build/X86/gem5.opt configs/example/se1.py --cpu-type=DerivO3CPU --mem-type=DDR3_1600_8x8 --caches --l1d_size=64kB --l1i_size=64kB --cpu-clock=4GHz --cmd=/home/xxa/Desktop/Arch_Labs/Lab2/cs251a-microbench-master/sieve --l1d-hwp-type=AMPMPrefetcher

**** REAL SIMULATION ****
warn: The `get_runtime_isa` function is deprecated. Please migrate away from using this function.
warn: The `get_runtime_isa` function is deprecated. Please migrate away from using this function.
warn: No dot file generated. Please install pydot to generate the dot file and pdf.
build/X86/sim/simulate.cc:192: info: Entering event queue @ 0.  Starting simulation...
build/X86/arch/x86/cpuid.cc:180: warn: x86 cpuid family 0x0000: unimplemented function 13
build/X86/sim/mem_state.cc:443: info: Increasing stack size by one page.
build/X86/sim/syscall_emul.cc:74: warn: ignoring syscall mprotect(...)
Exiting @ tick 32644636500 because exiting with last active thread context




Global frequency set at 1000000000000 ticks per second
build/X86/mem/dram_interface.cc:690: warn: DRAM device capacity (8192 Mbytes) does not match the address range assigned (512 Mbytes)
0: system.remote_gdb: listening for remote gdb on port 7000
gem5 Simulator System.  https://www.gem5.org
gem5 is copyrighted software; use the --copyright option for details.

gem5 version 22.1.0.0
gem5 compiled Apr  8 2023 08:33:31
gem5 started Apr 11 2023 08:34:42
gem5 executing on ubuntu, pid 3710
command line: build/X86/gem5.opt configs/example/se1.py --cpu-type=DerivO3CPU --mem-type=DDR3_1600_8x8 --caches --l1d_size=64kB --l1i_size=64kB --l2cache --l2_size=256kB --cpu-clock=1GHz --cmd=/home/xxa/Desktop/Arch_Labs/Lab2/cs251a-microbench-master/sieve --l1d-hwp-type=AMPMPrefetcher --l2-hwp-type=AMPMPrefetcher

**** REAL SIMULATION ****
warn: The `get_runtime_isa` function is deprecated. Please migrate away from using this function.
warn: The `get_runtime_isa` function is deprecated. Please migrate away from using this function.
warn: No dot file generated. Please install pydot to generate the dot file and pdf.
build/X86/sim/simulate.cc:192: info: Entering event queue @ 0.  Starting simulation...
build/X86/arch/x86/cpuid.cc:180: warn: x86 cpuid family 0x0000: unimplemented function 13
build/X86/sim/mem_state.cc:443: info: Increasing stack size by one page.
build/X86/sim/syscall_emul.cc:74: warn: ignoring syscall mprotect(...)
Exiting @ tick 41798054000 because exiting with last active thread context




Global frequency set at 1000000000000 ticks per second
build/X86/mem/dram_interface.cc:690: warn: DRAM device capacity (8192 Mbytes) does not match the address range assigned (512 Mbytes)
0: system.remote_gdb: listening for remote gdb on port 7000
gem5 Simulator System.  https://www.gem5.org
gem5 is copyrighted software; use the --copyright option for details.

gem5 version 22.1.0.0
gem5 compiled Apr  8 2023 08:33:31
gem5 started Apr 11 2023 08:36:46
gem5 executing on ubuntu, pid 3770
command line: build/X86/gem5.opt configs/example/se1.py --cpu-type=DerivO3CPU --mem-type=DDR3_1600_8x8 --caches --l1d_size=64kB --l1i_size=64kB --l2cache --l2_size=2MB --cpu-clock=1GHz --cmd=/home/xxa/Desktop/Arch_Labs/Lab2/cs251a-microbench-master/sieve --l1d-hwp-type=AMPMPrefetcher --l2-hwp-type=AMPMPrefetcher

**** REAL SIMULATION ****
warn: The `get_runtime_isa` function is deprecated. Please migrate away from using this function.
warn: The `get_runtime_isa` function is deprecated. Please migrate away from using this function.
warn: No dot file generated. Please install pydot to generate the dot file and pdf.
build/X86/sim/simulate.cc:192: info: Entering event queue @ 0.  Starting simulation...
build/X86/arch/x86/cpuid.cc:180: warn: x86 cpuid family 0x0000: unimplemented function 13
build/X86/sim/mem_state.cc:443: info: Increasing stack size by one page.
build/X86/sim/syscall_emul.cc:74: warn: ignoring syscall mprotect(...)
Exiting @ tick 17300234000 because exiting with last active thread context




Global frequency set at 1000000000000 ticks per second
build/X86/mem/dram_interface.cc:690: warn: DRAM device capacity (8192 Mbytes) does not match the address range assigned (512 Mbytes)
0: system.remote_gdb: listening for remote gdb on port 7000
gem5 Simulator System.  https://www.gem5.org
gem5 is copyrighted software; use the --copyright option for details.

gem5 version 22.1.0.0
gem5 compiled Apr  8 2023 08:33:31
gem5 started Apr 11 2023 08:38:09
gem5 executing on ubuntu, pid 3820
command line: build/X86/gem5.opt configs/example/se1.py --cpu-type=DerivO3CPU --mem-type=DDR3_1600_8x8 --caches --l1d_size=64kB --l1i_size=64kB --l2cache --l2_size=16MB --cpu-clock=1GHz --cmd=/home/xxa/Desktop/Arch_Labs/Lab2/cs251a-microbench-master/sieve --l1d-hwp-type=AMPMPrefetcher --l2-hwp-type=AMPMPrefetcher

**** REAL SIMULATION ****
warn: The `get_runtime_isa` function is deprecated. Please migrate away from using this function.
warn: The `get_runtime_isa` function is deprecated. Please migrate away from using this function.
warn: No dot file generated. Please install pydot to generate the dot file and pdf.
build/X86/sim/simulate.cc:192: info: Entering event queue @ 0.  Starting simulation...
build/X86/arch/x86/cpuid.cc:180: warn: x86 cpuid family 0x0000: unimplemented function 13
build/X86/sim/mem_state.cc:443: info: Increasing stack size by one page.
build/X86/sim/syscall_emul.cc:74: warn: ignoring syscall mprotect(...)
Exiting @ tick 17300234000 because exiting with last active thread context








Global frequency set at 1000000000000 ticks per second
build/X86/mem/dram_interface.cc:690: warn: DRAM device capacity (8192 Mbytes) does not match the address range assigned (512 Mbytes)
0: system.remote_gdb: listening for remote gdb on port 7000
gem5 Simulator System.  https://www.gem5.org
gem5 is copyrighted software; use the --copyright option for details.

gem5 version 22.1.0.0
gem5 compiled Apr  8 2023 08:33:31
gem5 started Apr 11 2023 08:39:30
gem5 executing on ubuntu, pid 3865
command line: build/X86/gem5.opt configs/example/se1.py --cpu-type=DerivO3CPU --mem-type=DDR3_1600_8x8 --caches --l1d_size=64kB --l1i_size=64kB --cpu-clock=1GHz --cmd=/home/xxa/Desktop/Arch_Labs/Lab2/cs251a-microbench-master/spmv --l1d-hwp-type=AMPMPrefetcher

**** REAL SIMULATION ****
warn: The `get_runtime_isa` function is deprecated. Please migrate away from using this function.
warn: The `get_runtime_isa` function is deprecated. Please migrate away from using this function.
warn: No dot file generated. Please install pydot to generate the dot file and pdf.
build/X86/sim/simulate.cc:192: info: Entering event queue @ 0.  Starting simulation...
build/X86/arch/x86/cpuid.cc:180: warn: x86 cpuid family 0x0000: unimplemented function 13
build/X86/sim/mem_state.cc:443: info: Increasing stack size by one page.
build/X86/sim/syscall_emul.cc:74: warn: ignoring syscall mprotect(...)
build/X86/sim/mem_state.cc:443: info: Increasing stack size by one page.
build/X86/sim/mem_state.cc:443: info: Increasing stack size by one page.
build/X86/sim/mem_state.cc:443: info: Increasing stack size by one page.
build/X86/sim/mem_state.cc:443: info: Increasing stack size by one page.
build/X86/sim/mem_state.cc:443: info: Increasing stack size by one page.
build/X86/sim/mem_state.cc:443: info: Increasing stack size by one page.
build/X86/sim/mem_state.cc:443: info: Increasing stack size by one page.
Exiting @ tick 29990756000 because exiting with last active thread context




Global frequency set at 1000000000000 ticks per second
build/X86/mem/dram_interface.cc:690: warn: DRAM device capacity (8192 Mbytes) does not match the address range assigned (512 Mbytes)
build/X86/base/statistics.hh:280: warn: One of the stats is a legacy stat. Legacy stat is a stat that does not belong to any statistics::Group. Legacy stat is deprecated.
build/X86/base/statistics.hh:280: warn: One of the stats is a legacy stat. Legacy stat is a stat that does not belong to any statistics::Group. Legacy stat is deprecated.
0: system.remote_gdb: listening for remote gdb on port 7000
gem5 Simulator System.  https://www.gem5.org
gem5 is copyrighted software; use the --copyright option for details.

gem5 version 22.1.0.0
gem5 compiled Apr  8 2023 08:33:31
gem5 started Apr 11 2023 08:42:11
gem5 executing on ubuntu, pid 3933
command line: build/X86/gem5.opt configs/example/se.py --cpu-type=X86MinorCPU --mem-type=DDR3_1600_8x8 --caches --l1d_size=64kB --l1i_size=64kB --cpu-clock=1GHz --cmd=/home/xxa/Desktop/Arch_Labs/Lab2/cs251a-microbench-master/spmv --l1d-hwp-type=AMPMPrefetcher

**** REAL SIMULATION ****
warn: The `get_runtime_isa` function is deprecated. Please migrate away from using this function.
warn: The `get_runtime_isa` function is deprecated. Please migrate away from using this function.
warn: No dot file generated. Please install pydot to generate the dot file and pdf.
build/X86/sim/simulate.cc:192: info: Entering event queue @ 0.  Starting simulation...
build/X86/sim/mem_state.cc:443: info: Increasing stack size by one page.
build/X86/sim/syscall_emul.cc:74: warn: ignoring syscall mprotect(...)
build/X86/sim/mem_state.cc:443: info: Increasing stack size by one page.
build/X86/sim/mem_state.cc:443: info: Increasing stack size by one page.
build/X86/sim/mem_state.cc:443: info: Increasing stack size by one page.
build/X86/sim/mem_state.cc:443: info: Increasing stack size by one page.
build/X86/sim/mem_state.cc:443: info: Increasing stack size by one page.
build/X86/sim/mem_state.cc:443: info: Increasing stack size by one page.
build/X86/sim/mem_state.cc:443: info: Increasing stack size by one page.
Exiting @ tick 117191795000 because exiting with last active thread context




Global frequency set at 1000000000000 ticks per second
build/X86/mem/dram_interface.cc:690: warn: DRAM device capacity (8192 Mbytes) does not match the address range assigned (512 Mbytes)
0: system.remote_gdb: listening for remote gdb on port 7000
gem5 Simulator System.  https://www.gem5.org
gem5 is copyrighted software; use the --copyright option for details.

gem5 version 22.1.0.0
gem5 compiled Apr  8 2023 08:33:31
gem5 started Apr 11 2023 08:45:05
gem5 executing on ubuntu, pid 3994
command line: build/X86/gem5.opt configs/example/se2.py --cpu-type=DerivO3CPU --mem-type=DDR3_1600_8x8 --caches --l1d_size=64kB --l1i_size=64kB --cpu-clock=1GHz --cmd=/home/xxa/Desktop/Arch_Labs/Lab2/cs251a-microbench-master/spmv --l1d-hwp-type=AMPMPrefetcher

**** REAL SIMULATION ****
warn: The `get_runtime_isa` function is deprecated. Please migrate away from using this function.
warn: The `get_runtime_isa` function is deprecated. Please migrate away from using this function.
warn: No dot file generated. Please install pydot to generate the dot file and pdf.
build/X86/sim/simulate.cc:192: info: Entering event queue @ 0.  Starting simulation...
build/X86/arch/x86/cpuid.cc:180: warn: x86 cpuid family 0x0000: unimplemented function 13
build/X86/sim/mem_state.cc:443: info: Increasing stack size by one page.
build/X86/sim/syscall_emul.cc:74: warn: ignoring syscall mprotect(...)
build/X86/sim/mem_state.cc:443: info: Increasing stack size by one page.
build/X86/sim/mem_state.cc:443: info: Increasing stack size by one page.
build/X86/sim/mem_state.cc:443: info: Increasing stack size by one page.
build/X86/sim/mem_state.cc:443: info: Increasing stack size by one page.
build/X86/sim/mem_state.cc:443: info: Increasing stack size by one page.
build/X86/sim/mem_state.cc:443: info: Increasing stack size by one page.
build/X86/sim/mem_state.cc:443: info: Increasing stack size by one page.
Exiting @ tick 30340445000 because exiting with last active thread context




Global frequency set at 1000000000000 ticks per second
build/X86/mem/dram_interface.cc:690: warn: DRAM device capacity (8192 Mbytes) does not match the address range assigned (512 Mbytes)
0: system.remote_gdb: listening for remote gdb on port 7000
gem5 Simulator System.  https://www.gem5.org
gem5 is copyrighted software; use the --copyright option for details.

gem5 version 22.1.0.0
gem5 compiled Apr  8 2023 08:33:31
gem5 started Apr 11 2023 08:47:48
gem5 executing on ubuntu, pid 4056
command line: build/X86/gem5.opt configs/example/se1.py --cpu-type=DerivO3CPU --mem-type=DDR3_1600_8x8 --caches --l1d_size=64kB --l1i_size=64kB --cpu-clock=4GHz --cmd=/home/xxa/Desktop/Arch_Labs/Lab2/cs251a-microbench-master/spmv --l1d-hwp-type=AMPMPrefetcher

**** REAL SIMULATION ****
warn: The `get_runtime_isa` function is deprecated. Please migrate away from using this function.
warn: The `get_runtime_isa` function is deprecated. Please migrate away from using this function.
warn: No dot file generated. Please install pydot to generate the dot file and pdf.
build/X86/sim/simulate.cc:192: info: Entering event queue @ 0.  Starting simulation...
build/X86/arch/x86/cpuid.cc:180: warn: x86 cpuid family 0x0000: unimplemented function 13
build/X86/sim/mem_state.cc:443: info: Increasing stack size by one page.
build/X86/sim/syscall_emul.cc:74: warn: ignoring syscall mprotect(...)
build/X86/sim/mem_state.cc:443: info: Increasing stack size by one page.
build/X86/sim/mem_state.cc:443: info: Increasing stack size by one page.
build/X86/sim/mem_state.cc:443: info: Increasing stack size by one page.
build/X86/sim/mem_state.cc:443: info: Increasing stack size by one page.
build/X86/sim/mem_state.cc:443: info: Increasing stack size by one page.
build/X86/sim/mem_state.cc:443: info: Increasing stack size by one page.
build/X86/sim/mem_state.cc:443: info: Increasing stack size by one page.
Exiting @ tick 29593203500 because exiting with last active thread context




Global frequency set at 1000000000000 ticks per second
build/X86/mem/dram_interface.cc:690: warn: DRAM device capacity (8192 Mbytes) does not match the address range assigned (512 Mbytes)
0: system.remote_gdb: listening for remote gdb on port 7000
gem5 Simulator System.  https://www.gem5.org
gem5 is copyrighted software; use the --copyright option for details.

gem5 version 22.1.0.0
gem5 compiled Apr  8 2023 08:33:31
gem5 started Apr 11 2023 08:52:16
gem5 executing on ubuntu, pid 4113
command line: build/X86/gem5.opt configs/example/se1.py --cpu-type=DerivO3CPU --mem-type=DDR3_1600_8x8 --caches --l1d_size=64kB --l1i_size=64kB --l2cache --l2_size=256kB --cpu-clock=1GHz --cmd=/home/xxa/Desktop/Arch_Labs/Lab2/cs251a-microbench-master/spmv --l1d-hwp-type=AMPMPrefetcher --l2-hwp-type=AMPMPrefetcher

**** REAL SIMULATION ****
warn: The `get_runtime_isa` function is deprecated. Please migrate away from using this function.
warn: The `get_runtime_isa` function is deprecated. Please migrate away from using this function.
warn: No dot file generated. Please install pydot to generate the dot file and pdf.
build/X86/sim/simulate.cc:192: info: Entering event queue @ 0.  Starting simulation...
build/X86/arch/x86/cpuid.cc:180: warn: x86 cpuid family 0x0000: unimplemented function 13
build/X86/sim/mem_state.cc:443: info: Increasing stack size by one page.
build/X86/sim/syscall_emul.cc:74: warn: ignoring syscall mprotect(...)
build/X86/sim/mem_state.cc:443: info: Increasing stack size by one page.
build/X86/sim/mem_state.cc:443: info: Increasing stack size by one page.
build/X86/sim/mem_state.cc:443: info: Increasing stack size by one page.
build/X86/sim/mem_state.cc:443: info: Increasing stack size by one page.
build/X86/sim/mem_state.cc:443: info: Increasing stack size by one page.
build/X86/sim/mem_state.cc:443: info: Increasing stack size by one page.
build/X86/sim/mem_state.cc:443: info: Increasing stack size by one page.
Exiting @ tick 21488031000 because exiting with last active thread context




Global frequency set at 1000000000000 ticks per second
build/X86/mem/dram_interface.cc:690: warn: DRAM device capacity (8192 Mbytes) does not match the address range assigned (512 Mbytes)
0: system.remote_gdb: listening for remote gdb on port 7000
gem5 Simulator System.  https://www.gem5.org
gem5 is copyrighted software; use the --copyright option for details.

gem5 version 22.1.0.0
gem5 compiled Apr  8 2023 08:33:31
gem5 started Apr 11 2023 08:54:44
gem5 executing on ubuntu, pid 4162
command line: build/X86/gem5.opt configs/example/se1.py --cpu-type=DerivO3CPU --mem-type=DDR3_1600_8x8 --caches --l1d_size=64kB --l1i_size=64kB --l2cache --l2_size=2MB --cpu-clock=1GHz --cmd=/home/xxa/Desktop/Arch_Labs/Lab2/cs251a-microbench-master/spmv --l1d-hwp-type=AMPMPrefetcher --l2-hwp-type=AMPMPrefetcher

**** REAL SIMULATION ****
warn: The `get_runtime_isa` function is deprecated. Please migrate away from using this function.
warn: The `get_runtime_isa` function is deprecated. Please migrate away from using this function.
warn: No dot file generated. Please install pydot to generate the dot file and pdf.
build/X86/sim/simulate.cc:192: info: Entering event queue @ 0.  Starting simulation...
build/X86/arch/x86/cpuid.cc:180: warn: x86 cpuid family 0x0000: unimplemented function 13
build/X86/sim/mem_state.cc:443: info: Increasing stack size by one page.
build/X86/sim/syscall_emul.cc:74: warn: ignoring syscall mprotect(...)
build/X86/sim/mem_state.cc:443: info: Increasing stack size by one page.
build/X86/sim/mem_state.cc:443: info: Increasing stack size by one page.
build/X86/sim/mem_state.cc:443: info: Increasing stack size by one page.
build/X86/sim/mem_state.cc:443: info: Increasing stack size by one page.
build/X86/sim/mem_state.cc:443: info: Increasing stack size by one page.
build/X86/sim/mem_state.cc:443: info: Increasing stack size by one page.
build/X86/sim/mem_state.cc:443: info: Increasing stack size by one page.
Exiting @ tick 14058059000 because exiting with last active thread context




Global frequency set at 1000000000000 ticks per second
build/X86/mem/dram_interface.cc:690: warn: DRAM device capacity (8192 Mbytes) does not match the address range assigned (512 Mbytes)
0: system.remote_gdb: listening for remote gdb on port 7000
gem5 Simulator System.  https://www.gem5.org
gem5 is copyrighted software; use the --copyright option for details.

gem5 version 22.1.0.0
gem5 compiled Apr  8 2023 08:33:31
gem5 started Apr 11 2023 08:58:32
gem5 executing on ubuntu, pid 4220
command line: build/X86/gem5.opt configs/example/se1.py --cpu-type=DerivO3CPU --mem-type=DDR3_1600_8x8 --caches --l1d_size=64kB --l1i_size=64kB --l2cache --l2_size=16MB --cpu-clock=1GHz --cmd=/home/xxa/Desktop/Arch_Labs/Lab2/cs251a-microbench-master/spmv --l1d-hwp-type=AMPMPrefetcher --l2-hwp-type=AMPMPrefetcher

**** REAL SIMULATION ****
warn: The `get_runtime_isa` function is deprecated. Please migrate away from using this function.
warn: The `get_runtime_isa` function is deprecated. Please migrate away from using this function.
warn: No dot file generated. Please install pydot to generate the dot file and pdf.
build/X86/sim/simulate.cc:192: info: Entering event queue @ 0.  Starting simulation...
build/X86/arch/x86/cpuid.cc:180: warn: x86 cpuid family 0x0000: unimplemented function 13
build/X86/sim/mem_state.cc:443: info: Increasing stack size by one page.
build/X86/sim/syscall_emul.cc:74: warn: ignoring syscall mprotect(...)
build/X86/sim/mem_state.cc:443: info: Increasing stack size by one page.
build/X86/sim/mem_state.cc:443: info: Increasing stack size by one page.
build/X86/sim/mem_state.cc:443: info: Increasing stack size by one page.
build/X86/sim/mem_state.cc:443: info: Increasing stack size by one page.
build/X86/sim/mem_state.cc:443: info: Increasing stack size by one page.
build/X86/sim/mem_state.cc:443: info: Increasing stack size by one page.
build/X86/sim/mem_state.cc:443: info: Increasing stack size by one page.
Exiting @ tick 11723025000 because exiting with last active thread context








