Global frequency set at 1000000000000 ticks per second
build/X86/mem/dram_interface.cc:690: warn: DRAM device capacity (8192 Mbytes) does not match the address range assigned (512 Mbytes)
0: system.remote_gdb: listening for remote gdb on port 7001
gem5 Simulator System.  https://www.gem5.org
gem5 is copyrighted software; use the --copyright option for details.

gem5 version 22.1.0.0
gem5 compiled Apr  8 2023 08:33:31
gem5 started Apr 24 2023 02:12:31
gem5 executing on ubuntu, pid 3595
command line: build/X86/gem5.opt configs/example/se1.py --cpu-type=DerivO3CPU --mem-type=DDR3_1600_8x8 --caches --l1d_size=64kB --l1i_size=64kB --cpu-clock=1GHz --cmd=/home/xxa/Desktop/Arch_Labs/Lab2/cs251a-microbench-master/lfsr --l1d-hwp-type=AMPMPrefetcher

**** REAL SIMULATION ****
warn: The `get_runtime_isa` function is deprecated. Please migrate away from using this function.
warn: The `get_runtime_isa` function is deprecated. Please migrate away from using this function.
warn: No dot file generated. Please install pydot to generate the dot file and pdf.
build/X86/sim/simulate.cc:192: info: Entering event queue @ 0.  Starting simulation...
build/X86/arch/x86/cpuid.cc:180: warn: x86 cpuid family 0x0000: unimplemented function 13
build/X86/sim/mem_state.cc:443: info: Increasing stack size by one page.
build/X86/sim/syscall_emul.cc:74: warn: ignoring syscall mprotect(...)
Exiting @ tick 51862236000 because exiting with last active thread context




Global frequency set at 1000000000000 ticks per second
build/X86/mem/dram_interface.cc:690: warn: DRAM device capacity (8192 Mbytes) does not match the address range assigned (512 Mbytes)
build/X86/base/statistics.hh:280: warn: One of the stats is a legacy stat. Legacy stat is a stat that does not belong to any statistics::Group. Legacy stat is deprecated.
build/X86/base/statistics.hh:280: warn: One of the stats is a legacy stat. Legacy stat is a stat that does not belong to any statistics::Group. Legacy stat is deprecated.
0: system.remote_gdb: listening for remote gdb on port 7001
gem5 Simulator System.  https://www.gem5.org
gem5 is copyrighted software; use the --copyright option for details.

gem5 version 22.1.0.0
gem5 compiled Apr  8 2023 08:33:31
gem5 started Apr 24 2023 02:13:31
gem5 executing on ubuntu, pid 3605
command line: build/X86/gem5.opt configs/example/se.py --cpu-type=X86MinorCPU --mem-type=DDR3_1600_8x8 --caches --l1d_size=64kB --l1i_size=64kB --cpu-clock=1GHz --cmd=/home/xxa/Desktop/Arch_Labs/Lab2/cs251a-microbench-master/lfsr --l1d-hwp-type=AMPMPrefetcher

**** REAL SIMULATION ****
warn: The `get_runtime_isa` function is deprecated. Please migrate away from using this function.
warn: The `get_runtime_isa` function is deprecated. Please migrate away from using this function.
warn: No dot file generated. Please install pydot to generate the dot file and pdf.
build/X86/sim/simulate.cc:192: info: Entering event queue @ 0.  Starting simulation...
build/X86/sim/mem_state.cc:443: info: Increasing stack size by one page.
build/X86/sim/syscall_emul.cc:74: warn: ignoring syscall mprotect(...)
Exiting @ tick 60830125000 because exiting with last active thread context




Global frequency set at 1000000000000 ticks per second
build/X86/mem/dram_interface.cc:690: warn: DRAM device capacity (8192 Mbytes) does not match the address range assigned (512 Mbytes)
0: system.remote_gdb: listening for remote gdb on port 7001
gem5 Simulator System.  https://www.gem5.org
gem5 is copyrighted software; use the --copyright option for details.

gem5 version 22.1.0.0
gem5 compiled Apr  8 2023 08:33:31
gem5 started Apr 24 2023 02:14:09
gem5 executing on ubuntu, pid 3666
command line: build/X86/gem5.opt configs/example/se2.py --cpu-type=DerivO3CPU --mem-type=DDR3_1600_8x8 --caches --l1d_size=64kB --l1i_size=64kB --cpu-clock=1GHz --cmd=/home/xxa/Desktop/Arch_Labs/Lab2/cs251a-microbench-master/lfsr --l1d-hwp-type=AMPMPrefetcher

**** REAL SIMULATION ****
warn: The `get_runtime_isa` function is deprecated. Please migrate away from using this function.
warn: The `get_runtime_isa` function is deprecated. Please migrate away from using this function.
warn: No dot file generated. Please install pydot to generate the dot file and pdf.
build/X86/sim/simulate.cc:192: info: Entering event queue @ 0.  Starting simulation...
build/X86/arch/x86/cpuid.cc:180: warn: x86 cpuid family 0x0000: unimplemented function 13
build/X86/sim/mem_state.cc:443: info: Increasing stack size by one page.
build/X86/sim/syscall_emul.cc:74: warn: ignoring syscall mprotect(...)
Exiting @ tick 51864097000 because exiting with last active thread context




Global frequency set at 1000000000000 ticks per second
build/X86/mem/dram_interface.cc:690: warn: DRAM device capacity (8192 Mbytes) does not match the address range assigned (512 Mbytes)
0: system.remote_gdb: listening for remote gdb on port 7001
gem5 Simulator System.  https://www.gem5.org
gem5 is copyrighted software; use the --copyright option for details.

gem5 version 22.1.0.0
gem5 compiled Apr  8 2023 08:33:31
gem5 started Apr 24 2023 02:15:07
gem5 executing on ubuntu, pid 3714
command line: build/X86/gem5.opt configs/example/se1.py --cpu-type=DerivO3CPU --mem-type=DDR3_1600_8x8 --caches --l1d_size=64kB --l1i_size=64kB --cpu-clock=4GHz --cmd=/home/xxa/Desktop/Arch_Labs/Lab2/cs251a-microbench-master/lfsr --l1d-hwp-type=AMPMPrefetcher

**** REAL SIMULATION ****
warn: The `get_runtime_isa` function is deprecated. Please migrate away from using this function.
warn: The `get_runtime_isa` function is deprecated. Please migrate away from using this function.
warn: No dot file generated. Please install pydot to generate the dot file and pdf.
build/X86/sim/simulate.cc:192: info: Entering event queue @ 0.  Starting simulation...
build/X86/arch/x86/cpuid.cc:180: warn: x86 cpuid family 0x0000: unimplemented function 13
build/X86/sim/mem_state.cc:443: info: Increasing stack size by one page.
build/X86/sim/syscall_emul.cc:74: warn: ignoring syscall mprotect(...)
Exiting @ tick 41371587750 because exiting with last active thread context




Global frequency set at 1000000000000 ticks per second
build/X86/mem/dram_interface.cc:690: warn: DRAM device capacity (8192 Mbytes) does not match the address range assigned (512 Mbytes)
0: system.remote_gdb: listening for remote gdb on port 7001
gem5 Simulator System.  https://www.gem5.org
gem5 is copyrighted software; use the --copyright option for details.

gem5 version 22.1.0.0
gem5 compiled Apr  8 2023 08:33:31
gem5 started Apr 24 2023 02:16:53
gem5 executing on ubuntu, pid 3761
command line: build/X86/gem5.opt configs/example/se1.py --cpu-type=DerivO3CPU --mem-type=DDR3_1600_8x8 --caches --l1d_size=64kB --l1i_size=64kB --l2cache --l2_size=256kB --cpu-clock=1GHz --cmd=/home/xxa/Desktop/Arch_Labs/Lab2/cs251a-microbench-master/lfsr --l1d-hwp-type=AMPMPrefetcher --l2-hwp-type=AMPMPrefetcher

**** REAL SIMULATION ****
warn: The `get_runtime_isa` function is deprecated. Please migrate away from using this function.
warn: The `get_runtime_isa` function is deprecated. Please migrate away from using this function.
warn: No dot file generated. Please install pydot to generate the dot file and pdf.
build/X86/sim/simulate.cc:192: info: Entering event queue @ 0.  Starting simulation...
build/X86/arch/x86/cpuid.cc:180: warn: x86 cpuid family 0x0000: unimplemented function 13
build/X86/sim/mem_state.cc:443: info: Increasing stack size by one page.
build/X86/sim/syscall_emul.cc:74: warn: ignoring syscall mprotect(...)
Exiting @ tick 70089441000 because exiting with last active thread context




Global frequency set at 1000000000000 ticks per second
build/X86/mem/dram_interface.cc:690: warn: DRAM device capacity (8192 Mbytes) does not match the address range assigned (512 Mbytes)
0: system.remote_gdb: listening for remote gdb on port 7001
gem5 Simulator System.  https://www.gem5.org
gem5 is copyrighted software; use the --copyright option for details.

gem5 version 22.1.0.0
gem5 compiled Apr  8 2023 08:33:31
gem5 started Apr 24 2023 02:18:02
gem5 executing on ubuntu, pid 3812
command line: build/X86/gem5.opt configs/example/se1.py --cpu-type=DerivO3CPU --mem-type=DDR3_1600_8x8 --caches --l1d_size=64kB --l1i_size=64kB --l2cache --l2_size=2MB --cpu-clock=1GHz --cmd=/home/xxa/Desktop/Arch_Labs/Lab2/cs251a-microbench-master/lfsr --l1d-hwp-type=AMPMPrefetcher --l2-hwp-type=AMPMPrefetcher

**** REAL SIMULATION ****
warn: The `get_runtime_isa` function is deprecated. Please migrate away from using this function.
warn: The `get_runtime_isa` function is deprecated. Please migrate away from using this function.
warn: No dot file generated. Please install pydot to generate the dot file and pdf.
build/X86/sim/simulate.cc:192: info: Entering event queue @ 0.  Starting simulation...
build/X86/arch/x86/cpuid.cc:180: warn: x86 cpuid family 0x0000: unimplemented function 13
build/X86/sim/mem_state.cc:443: info: Increasing stack size by one page.
build/X86/sim/syscall_emul.cc:74: warn: ignoring syscall mprotect(...)
Exiting @ tick 28475319000 because exiting with last active thread context




Global frequency set at 1000000000000 ticks per second
build/X86/mem/dram_interface.cc:690: warn: DRAM device capacity (8192 Mbytes) does not match the address range assigned (512 Mbytes)
0: system.remote_gdb: listening for remote gdb on port 7001
gem5 Simulator System.  https://www.gem5.org
gem5 is copyrighted software; use the --copyright option for details.

gem5 version 22.1.0.0
gem5 compiled Apr  8 2023 08:33:31
gem5 started Apr 24 2023 02:18:49
gem5 executing on ubuntu, pid 3861
command line: build/X86/gem5.opt configs/example/se1.py --cpu-type=DerivO3CPU --mem-type=DDR3_1600_8x8 --caches --l1d_size=64kB --l1i_size=64kB --l2cache --l2_size=16MB --cpu-clock=1GHz --cmd=/home/xxa/Desktop/Arch_Labs/Lab2/cs251a-microbench-master/lfsr --l1d-hwp-type=AMPMPrefetcher --l2-hwp-type=AMPMPrefetcher

**** REAL SIMULATION ****
warn: The `get_runtime_isa` function is deprecated. Please migrate away from using this function.
warn: The `get_runtime_isa` function is deprecated. Please migrate away from using this function.
warn: No dot file generated. Please install pydot to generate the dot file and pdf.
build/X86/sim/simulate.cc:192: info: Entering event queue @ 0.  Starting simulation...
build/X86/arch/x86/cpuid.cc:180: warn: x86 cpuid family 0x0000: unimplemented function 13
build/X86/sim/mem_state.cc:443: info: Increasing stack size by one page.
build/X86/sim/syscall_emul.cc:74: warn: ignoring syscall mprotect(...)
Exiting @ tick 28453093000 because exiting with last active thread context








Global frequency set at 1000000000000 ticks per second
build/X86/mem/dram_interface.cc:690: warn: DRAM device capacity (8192 Mbytes) does not match the address range assigned (512 Mbytes)
0: system.remote_gdb: listening for remote gdb on port 7001
gem5 Simulator System.  https://www.gem5.org
gem5 is copyrighted software; use the --copyright option for details.

gem5 version 22.1.0.0
gem5 compiled Apr  8 2023 08:33:31
gem5 started Apr 24 2023 02:19:38
gem5 executing on ubuntu, pid 3918
command line: build/X86/gem5.opt configs/example/se1.py --cpu-type=DerivO3CPU --mem-type=DDR3_1600_8x8 --caches --l1d_size=64kB --l1i_size=64kB --cpu-clock=1GHz --cmd=/home/xxa/Desktop/Arch_Labs/Lab2/cs251a-microbench-master/merge --l1d-hwp-type=AMPMPrefetcher

**** REAL SIMULATION ****
warn: The `get_runtime_isa` function is deprecated. Please migrate away from using this function.
warn: The `get_runtime_isa` function is deprecated. Please migrate away from using this function.
warn: No dot file generated. Please install pydot to generate the dot file and pdf.
build/X86/sim/simulate.cc:192: info: Entering event queue @ 0.  Starting simulation...
build/X86/arch/x86/cpuid.cc:180: warn: x86 cpuid family 0x0000: unimplemented function 13
build/X86/sim/mem_state.cc:443: info: Increasing stack size by one page.
build/X86/sim/syscall_emul.cc:74: warn: ignoring syscall mprotect(...)
Exiting @ tick 4519927000 because exiting with last active thread context




Global frequency set at 1000000000000 ticks per second
build/X86/mem/dram_interface.cc:690: warn: DRAM device capacity (8192 Mbytes) does not match the address range assigned (512 Mbytes)
build/X86/base/statistics.hh:280: warn: One of the stats is a legacy stat. Legacy stat is a stat that does not belong to any statistics::Group. Legacy stat is deprecated.
build/X86/base/statistics.hh:280: warn: One of the stats is a legacy stat. Legacy stat is a stat that does not belong to any statistics::Group. Legacy stat is deprecated.
0: system.remote_gdb: listening for remote gdb on port 7001
gem5 Simulator System.  https://www.gem5.org
gem5 is copyrighted software; use the --copyright option for details.

gem5 version 22.1.0.0
gem5 compiled Apr  8 2023 08:33:31
gem5 started Apr 24 2023 02:20:00
gem5 executing on ubuntu, pid 3961
command line: build/X86/gem5.opt configs/example/se.py --cpu-type=X86MinorCPU --mem-type=DDR3_1600_8x8 --caches --l1d_size=64kB --l1i_size=64kB --cpu-clock=1GHz --cmd=/home/xxa/Desktop/Arch_Labs/Lab2/cs251a-microbench-master/merge --l1d-hwp-type=AMPMPrefetcher

**** REAL SIMULATION ****
warn: The `get_runtime_isa` function is deprecated. Please migrate away from using this function.
warn: The `get_runtime_isa` function is deprecated. Please migrate away from using this function.
warn: No dot file generated. Please install pydot to generate the dot file and pdf.
build/X86/sim/simulate.cc:192: info: Entering event queue @ 0.  Starting simulation...
build/X86/sim/mem_state.cc:443: info: Increasing stack size by one page.
build/X86/sim/syscall_emul.cc:74: warn: ignoring syscall mprotect(...)
Exiting @ tick 12011907000 because exiting with last active thread context




Global frequency set at 1000000000000 ticks per second
build/X86/mem/dram_interface.cc:690: warn: DRAM device capacity (8192 Mbytes) does not match the address range assigned (512 Mbytes)
0: system.remote_gdb: listening for remote gdb on port 7001
gem5 Simulator System.  https://www.gem5.org
gem5 is copyrighted software; use the --copyright option for details.

gem5 version 22.1.0.0
gem5 compiled Apr  8 2023 08:33:31
gem5 started Apr 24 2023 02:20:19
gem5 executing on ubuntu, pid 3998
command line: build/X86/gem5.opt configs/example/se2.py --cpu-type=DerivO3CPU --mem-type=DDR3_1600_8x8 --caches --l1d_size=64kB --l1i_size=64kB --cpu-clock=1GHz --cmd=/home/xxa/Desktop/Arch_Labs/Lab2/cs251a-microbench-master/merge --l1d-hwp-type=AMPMPrefetcher

**** REAL SIMULATION ****
warn: The `get_runtime_isa` function is deprecated. Please migrate away from using this function.
warn: The `get_runtime_isa` function is deprecated. Please migrate away from using this function.
warn: No dot file generated. Please install pydot to generate the dot file and pdf.
build/X86/sim/simulate.cc:192: info: Entering event queue @ 0.  Starting simulation...
build/X86/arch/x86/cpuid.cc:180: warn: x86 cpuid family 0x0000: unimplemented function 13
build/X86/sim/mem_state.cc:443: info: Increasing stack size by one page.
build/X86/sim/syscall_emul.cc:74: warn: ignoring syscall mprotect(...)
Exiting @ tick 5785946000 because exiting with last active thread context




Global frequency set at 1000000000000 ticks per second
build/X86/mem/dram_interface.cc:690: warn: DRAM device capacity (8192 Mbytes) does not match the address range assigned (512 Mbytes)
0: system.remote_gdb: listening for remote gdb on port 7001
gem5 Simulator System.  https://www.gem5.org
gem5 is copyrighted software; use the --copyright option for details.

gem5 version 22.1.0.0
gem5 compiled Apr  8 2023 08:33:31
gem5 started Apr 24 2023 02:20:43
gem5 executing on ubuntu, pid 4035
command line: build/X86/gem5.opt configs/example/se1.py --cpu-type=DerivO3CPU --mem-type=DDR3_1600_8x8 --caches --l1d_size=64kB --l1i_size=64kB --cpu-clock=4GHz --cmd=/home/xxa/Desktop/Arch_Labs/Lab2/cs251a-microbench-master/merge --l1d-hwp-type=AMPMPrefetcher

**** REAL SIMULATION ****
warn: The `get_runtime_isa` function is deprecated. Please migrate away from using this function.
warn: The `get_runtime_isa` function is deprecated. Please migrate away from using this function.
warn: No dot file generated. Please install pydot to generate the dot file and pdf.
build/X86/sim/simulate.cc:192: info: Entering event queue @ 0.  Starting simulation...
build/X86/arch/x86/cpuid.cc:180: warn: x86 cpuid family 0x0000: unimplemented function 13
build/X86/sim/mem_state.cc:443: info: Increasing stack size by one page.
build/X86/sim/syscall_emul.cc:74: warn: ignoring syscall mprotect(...)
Exiting @ tick 1176731750 because exiting with last active thread context




Global frequency set at 1000000000000 ticks per second
build/X86/mem/dram_interface.cc:690: warn: DRAM device capacity (8192 Mbytes) does not match the address range assigned (512 Mbytes)
0: system.remote_gdb: listening for remote gdb on port 7001
gem5 Simulator System.  https://www.gem5.org
gem5 is copyrighted software; use the --copyright option for details.

gem5 version 22.1.0.0
gem5 compiled Apr  8 2023 08:33:31
gem5 started Apr 24 2023 02:21:05
gem5 executing on ubuntu, pid 4072
command line: build/X86/gem5.opt configs/example/se1.py --cpu-type=DerivO3CPU --mem-type=DDR3_1600_8x8 --caches --l1d_size=64kB --l1i_size=64kB --l2cache --l2_size=256kB --cpu-clock=1GHz --cmd=/home/xxa/Desktop/Arch_Labs/Lab2/cs251a-microbench-master/merge --l1d-hwp-type=AMPMPrefetcher --l2-hwp-type=AMPMPrefetcher

**** REAL SIMULATION ****
warn: The `get_runtime_isa` function is deprecated. Please migrate away from using this function.
warn: The `get_runtime_isa` function is deprecated. Please migrate away from using this function.
warn: No dot file generated. Please install pydot to generate the dot file and pdf.
build/X86/sim/simulate.cc:192: info: Entering event queue @ 0.  Starting simulation...
build/X86/arch/x86/cpuid.cc:180: warn: x86 cpuid family 0x0000: unimplemented function 13
build/X86/sim/mem_state.cc:443: info: Increasing stack size by one page.
build/X86/sim/syscall_emul.cc:74: warn: ignoring syscall mprotect(...)
Exiting @ tick 4525882000 because exiting with last active thread context




Global frequency set at 1000000000000 ticks per second
build/X86/mem/dram_interface.cc:690: warn: DRAM device capacity (8192 Mbytes) does not match the address range assigned (512 Mbytes)
0: system.remote_gdb: listening for remote gdb on port 7001
gem5 Simulator System.  https://www.gem5.org
gem5 is copyrighted software; use the --copyright option for details.

gem5 version 22.1.0.0
gem5 compiled Apr  8 2023 08:33:31
gem5 started Apr 24 2023 02:21:27
gem5 executing on ubuntu, pid 4108
command line: build/X86/gem5.opt configs/example/se1.py --cpu-type=DerivO3CPU --mem-type=DDR3_1600_8x8 --caches --l1d_size=64kB --l1i_size=64kB --l2cache --l2_size=2MB --cpu-clock=1GHz --cmd=/home/xxa/Desktop/Arch_Labs/Lab2/cs251a-microbench-master/merge --l1d-hwp-type=AMPMPrefetcher --l2-hwp-type=AMPMPrefetcher

**** REAL SIMULATION ****
warn: The `get_runtime_isa` function is deprecated. Please migrate away from using this function.
warn: The `get_runtime_isa` function is deprecated. Please migrate away from using this function.
warn: No dot file generated. Please install pydot to generate the dot file and pdf.
build/X86/sim/simulate.cc:192: info: Entering event queue @ 0.  Starting simulation...
build/X86/arch/x86/cpuid.cc:180: warn: x86 cpuid family 0x0000: unimplemented function 13
build/X86/sim/mem_state.cc:443: info: Increasing stack size by one page.
build/X86/sim/syscall_emul.cc:74: warn: ignoring syscall mprotect(...)
Exiting @ tick 4525882000 because exiting with last active thread context




Global frequency set at 1000000000000 ticks per second
build/X86/mem/dram_interface.cc:690: warn: DRAM device capacity (8192 Mbytes) does not match the address range assigned (512 Mbytes)
0: system.remote_gdb: listening for remote gdb on port 7001
gem5 Simulator System.  https://www.gem5.org
gem5 is copyrighted software; use the --copyright option for details.

gem5 version 22.1.0.0
gem5 compiled Apr  8 2023 08:33:31
gem5 started Apr 24 2023 02:21:49
gem5 executing on ubuntu, pid 4145
command line: build/X86/gem5.opt configs/example/se1.py --cpu-type=DerivO3CPU --mem-type=DDR3_1600_8x8 --caches --l1d_size=64kB --l1i_size=64kB --l2cache --l2_size=16MB --cpu-clock=1GHz --cmd=/home/xxa/Desktop/Arch_Labs/Lab2/cs251a-microbench-master/merge --l1d-hwp-type=AMPMPrefetcher --l2-hwp-type=AMPMPrefetcher

**** REAL SIMULATION ****
warn: The `get_runtime_isa` function is deprecated. Please migrate away from using this function.
warn: The `get_runtime_isa` function is deprecated. Please migrate away from using this function.
warn: No dot file generated. Please install pydot to generate the dot file and pdf.
build/X86/sim/simulate.cc:192: info: Entering event queue @ 0.  Starting simulation...
build/X86/arch/x86/cpuid.cc:180: warn: x86 cpuid family 0x0000: unimplemented function 13
build/X86/sim/mem_state.cc:443: info: Increasing stack size by one page.
build/X86/sim/syscall_emul.cc:74: warn: ignoring syscall mprotect(...)
Exiting @ tick 4525882000 because exiting with last active thread context








Global frequency set at 1000000000000 ticks per second
build/X86/mem/dram_interface.cc:690: warn: DRAM device capacity (8192 Mbytes) does not match the address range assigned (512 Mbytes)
0: system.remote_gdb: listening for remote gdb on port 7001
gem5 Simulator System.  https://www.gem5.org
gem5 is copyrighted software; use the --copyright option for details.

gem5 version 22.1.0.0
gem5 compiled Apr  8 2023 08:33:31
gem5 started Apr 24 2023 02:22:11
gem5 executing on ubuntu, pid 4181
command line: build/X86/gem5.opt configs/example/se1.py --cpu-type=DerivO3CPU --mem-type=DDR3_1600_8x8 --caches --l1d_size=64kB --l1i_size=64kB --cpu-clock=1GHz --cmd=/home/xxa/Desktop/Arch_Labs/Lab2/cs251a-microbench-master/mm --l1d-hwp-type=AMPMPrefetcher

**** REAL SIMULATION ****
warn: The `get_runtime_isa` function is deprecated. Please migrate away from using this function.
warn: The `get_runtime_isa` function is deprecated. Please migrate away from using this function.
warn: No dot file generated. Please install pydot to generate the dot file and pdf.
build/X86/sim/simulate.cc:192: info: Entering event queue @ 0.  Starting simulation...
build/X86/arch/x86/cpuid.cc:180: warn: x86 cpuid family 0x0000: unimplemented function 13
build/X86/sim/mem_state.cc:443: info: Increasing stack size by one page.
build/X86/sim/syscall_emul.cc:74: warn: ignoring syscall mprotect(...)
Exiting @ tick 28338423000 because exiting with last active thread context




Global frequency set at 1000000000000 ticks per second
build/X86/mem/dram_interface.cc:690: warn: DRAM device capacity (8192 Mbytes) does not match the address range assigned (512 Mbytes)
build/X86/base/statistics.hh:280: warn: One of the stats is a legacy stat. Legacy stat is a stat that does not belong to any statistics::Group. Legacy stat is deprecated.
build/X86/base/statistics.hh:280: warn: One of the stats is a legacy stat. Legacy stat is a stat that does not belong to any statistics::Group. Legacy stat is deprecated.
0: system.remote_gdb: listening for remote gdb on port 7001
gem5 Simulator System.  https://www.gem5.org
gem5 is copyrighted software; use the --copyright option for details.

gem5 version 22.1.0.0
gem5 compiled Apr  8 2023 08:33:31
gem5 started Apr 24 2023 02:25:20
gem5 executing on ubuntu, pid 4274
command line: build/X86/gem5.opt configs/example/se.py --cpu-type=X86MinorCPU --mem-type=DDR3_1600_8x8 --caches --l1d_size=64kB --l1i_size=64kB --cpu-clock=1GHz --cmd=/home/xxa/Desktop/Arch_Labs/Lab2/cs251a-microbench-master/mm --l1d-hwp-type=AMPMPrefetcher

**** REAL SIMULATION ****
warn: The `get_runtime_isa` function is deprecated. Please migrate away from using this function.
warn: The `get_runtime_isa` function is deprecated. Please migrate away from using this function.
warn: No dot file generated. Please install pydot to generate the dot file and pdf.
build/X86/sim/simulate.cc:192: info: Entering event queue @ 0.  Starting simulation...
build/X86/sim/mem_state.cc:443: info: Increasing stack size by one page.
build/X86/sim/syscall_emul.cc:74: warn: ignoring syscall mprotect(...)
Exiting @ tick 153246137000 because exiting with last active thread context




Global frequency set at 1000000000000 ticks per second
build/X86/mem/dram_interface.cc:690: warn: DRAM device capacity (8192 Mbytes) does not match the address range assigned (512 Mbytes)
0: system.remote_gdb: listening for remote gdb on port 7001
gem5 Simulator System.  https://www.gem5.org
gem5 is copyrighted software; use the --copyright option for details.

gem5 version 22.1.0.0
gem5 compiled Apr  8 2023 08:33:31
gem5 started Apr 24 2023 02:29:01
gem5 executing on ubuntu, pid 4323
command line: build/X86/gem5.opt configs/example/se2.py --cpu-type=DerivO3CPU --mem-type=DDR3_1600_8x8 --caches --l1d_size=64kB --l1i_size=64kB --cpu-clock=1GHz --cmd=/home/xxa/Desktop/Arch_Labs/Lab2/cs251a-microbench-master/mm --l1d-hwp-type=AMPMPrefetcher

**** REAL SIMULATION ****
warn: The `get_runtime_isa` function is deprecated. Please migrate away from using this function.
warn: The `get_runtime_isa` function is deprecated. Please migrate away from using this function.
warn: No dot file generated. Please install pydot to generate the dot file and pdf.
build/X86/sim/simulate.cc:192: info: Entering event queue @ 0.  Starting simulation...
build/X86/arch/x86/cpuid.cc:180: warn: x86 cpuid family 0x0000: unimplemented function 13
build/X86/sim/mem_state.cc:443: info: Increasing stack size by one page.
build/X86/sim/syscall_emul.cc:74: warn: ignoring syscall mprotect(...)
Exiting @ tick 65429155000 because exiting with last active thread context




Global frequency set at 1000000000000 ticks per second
build/X86/mem/dram_interface.cc:690: warn: DRAM device capacity (8192 Mbytes) does not match the address range assigned (512 Mbytes)
0: system.remote_gdb: listening for remote gdb on port 7001
gem5 Simulator System.  https://www.gem5.org
gem5 is copyrighted software; use the --copyright option for details.

gem5 version 22.1.0.0
gem5 compiled Apr  8 2023 08:33:31
gem5 started Apr 24 2023 02:32:53
gem5 executing on ubuntu, pid 4381
command line: build/X86/gem5.opt configs/example/se1.py --cpu-type=DerivO3CPU --mem-type=DDR3_1600_8x8 --caches --l1d_size=64kB --l1i_size=64kB --cpu-clock=4GHz --cmd=/home/xxa/Desktop/Arch_Labs/Lab2/cs251a-microbench-master/mm --l1d-hwp-type=AMPMPrefetcher

**** REAL SIMULATION ****
warn: The `get_runtime_isa` function is deprecated. Please migrate away from using this function.
warn: The `get_runtime_isa` function is deprecated. Please migrate away from using this function.
warn: No dot file generated. Please install pydot to generate the dot file and pdf.
build/X86/sim/simulate.cc:192: info: Entering event queue @ 0.  Starting simulation...
build/X86/arch/x86/cpuid.cc:180: warn: x86 cpuid family 0x0000: unimplemented function 13
build/X86/sim/mem_state.cc:443: info: Increasing stack size by one page.
build/X86/sim/syscall_emul.cc:74: warn: ignoring syscall mprotect(...)
Exiting @ tick 7957027750 because exiting with last active thread context




Global frequency set at 1000000000000 ticks per second
build/X86/mem/dram_interface.cc:690: warn: DRAM device capacity (8192 Mbytes) does not match the address range assigned (512 Mbytes)
0: system.remote_gdb: listening for remote gdb on port 7001
gem5 Simulator System.  https://www.gem5.org
gem5 is copyrighted software; use the --copyright option for details.

gem5 version 22.1.0.0
gem5 compiled Apr  8 2023 08:33:31
gem5 started Apr 24 2023 02:35:59
gem5 executing on ubuntu, pid 4436
command line: build/X86/gem5.opt configs/example/se1.py --cpu-type=DerivO3CPU --mem-type=DDR3_1600_8x8 --caches --l1d_size=64kB --l1i_size=64kB --l2cache --l2_size=256kB --cpu-clock=1GHz --cmd=/home/xxa/Desktop/Arch_Labs/Lab2/cs251a-microbench-master/mm --l1d-hwp-type=AMPMPrefetcher --l2-hwp-type=AMPMPrefetcher

**** REAL SIMULATION ****
warn: The `get_runtime_isa` function is deprecated. Please migrate away from using this function.
warn: The `get_runtime_isa` function is deprecated. Please migrate away from using this function.
warn: No dot file generated. Please install pydot to generate the dot file and pdf.
build/X86/sim/simulate.cc:192: info: Entering event queue @ 0.  Starting simulation...
build/X86/arch/x86/cpuid.cc:180: warn: x86 cpuid family 0x0000: unimplemented function 13
build/X86/sim/mem_state.cc:443: info: Increasing stack size by one page.
build/X86/sim/syscall_emul.cc:74: warn: ignoring syscall mprotect(...)
Exiting @ tick 27861585000 because exiting with last active thread context




Global frequency set at 1000000000000 ticks per second
build/X86/mem/dram_interface.cc:690: warn: DRAM device capacity (8192 Mbytes) does not match the address range assigned (512 Mbytes)
0: system.remote_gdb: listening for remote gdb on port 7001
gem5 Simulator System.  https://www.gem5.org
gem5 is copyrighted software; use the --copyright option for details.

gem5 version 22.1.0.0
gem5 compiled Apr  8 2023 08:33:31
gem5 started Apr 24 2023 02:39:04
gem5 executing on ubuntu, pid 4523
command line: build/X86/gem5.opt configs/example/se1.py --cpu-type=DerivO3CPU --mem-type=DDR3_1600_8x8 --caches --l1d_size=64kB --l1i_size=64kB --l2cache --l2_size=2MB --cpu-clock=1GHz --cmd=/home/xxa/Desktop/Arch_Labs/Lab2/cs251a-microbench-master/mm --l1d-hwp-type=AMPMPrefetcher --l2-hwp-type=AMPMPrefetcher

**** REAL SIMULATION ****
warn: The `get_runtime_isa` function is deprecated. Please migrate away from using this function.
warn: The `get_runtime_isa` function is deprecated. Please migrate away from using this function.
warn: No dot file generated. Please install pydot to generate the dot file and pdf.
build/X86/sim/simulate.cc:192: info: Entering event queue @ 0.  Starting simulation...
build/X86/arch/x86/cpuid.cc:180: warn: x86 cpuid family 0x0000: unimplemented function 13
build/X86/sim/mem_state.cc:443: info: Increasing stack size by one page.
build/X86/sim/syscall_emul.cc:74: warn: ignoring syscall mprotect(...)
Exiting @ tick 27861553000 because exiting with last active thread context




Global frequency set at 1000000000000 ticks per second
build/X86/mem/dram_interface.cc:690: warn: DRAM device capacity (8192 Mbytes) does not match the address range assigned (512 Mbytes)
0: system.remote_gdb: listening for remote gdb on port 7001
gem5 Simulator System.  https://www.gem5.org
gem5 is copyrighted software; use the --copyright option for details.

gem5 version 22.1.0.0
gem5 compiled Apr  8 2023 08:33:31
gem5 started Apr 24 2023 02:42:08
gem5 executing on ubuntu, pid 4570
command line: build/X86/gem5.opt configs/example/se1.py --cpu-type=DerivO3CPU --mem-type=DDR3_1600_8x8 --caches --l1d_size=64kB --l1i_size=64kB --l2cache --l2_size=16MB --cpu-clock=1GHz --cmd=/home/xxa/Desktop/Arch_Labs/Lab2/cs251a-microbench-master/mm --l1d-hwp-type=AMPMPrefetcher --l2-hwp-type=AMPMPrefetcher

**** REAL SIMULATION ****
warn: The `get_runtime_isa` function is deprecated. Please migrate away from using this function.
warn: The `get_runtime_isa` function is deprecated. Please migrate away from using this function.
warn: No dot file generated. Please install pydot to generate the dot file and pdf.
build/X86/sim/simulate.cc:192: info: Entering event queue @ 0.  Starting simulation...
build/X86/arch/x86/cpuid.cc:180: warn: x86 cpuid family 0x0000: unimplemented function 13
build/X86/sim/mem_state.cc:443: info: Increasing stack size by one page.
build/X86/sim/syscall_emul.cc:74: warn: ignoring syscall mprotect(...)
Exiting @ tick 27861553000 because exiting with last active thread context








Global frequency set at 1000000000000 ticks per second
build/X86/mem/dram_interface.cc:690: warn: DRAM device capacity (8192 Mbytes) does not match the address range assigned (512 Mbytes)
0: system.remote_gdb: listening for remote gdb on port 7001
gem5 Simulator System.  https://www.gem5.org
gem5 is copyrighted software; use the --copyright option for details.

gem5 version 22.1.0.0
gem5 compiled Apr  8 2023 08:33:31
gem5 started Apr 24 2023 02:45:14
gem5 executing on ubuntu, pid 4627
command line: build/X86/gem5.opt configs/example/se1.py --cpu-type=DerivO3CPU --mem-type=DDR3_1600_8x8 --caches --l1d_size=64kB --l1i_size=64kB --cpu-clock=1GHz --cmd=/home/xxa/Desktop/Arch_Labs/Lab2/cs251a-microbench-master/sieve --l1d-hwp-type=AMPMPrefetcher

**** REAL SIMULATION ****
warn: The `get_runtime_isa` function is deprecated. Please migrate away from using this function.
warn: The `get_runtime_isa` function is deprecated. Please migrate away from using this function.
warn: No dot file generated. Please install pydot to generate the dot file and pdf.
build/X86/sim/simulate.cc:192: info: Entering event queue @ 0.  Starting simulation...
build/X86/arch/x86/cpuid.cc:180: warn: x86 cpuid family 0x0000: unimplemented function 13
build/X86/sim/mem_state.cc:443: info: Increasing stack size by one page.
build/X86/sim/syscall_emul.cc:74: warn: ignoring syscall mprotect(...)
Exiting @ tick 61053102000 because exiting with last active thread context




Global frequency set at 1000000000000 ticks per second
build/X86/mem/dram_interface.cc:690: warn: DRAM device capacity (8192 Mbytes) does not match the address range assigned (512 Mbytes)
build/X86/base/statistics.hh:280: warn: One of the stats is a legacy stat. Legacy stat is a stat that does not belong to any statistics::Group. Legacy stat is deprecated.
build/X86/base/statistics.hh:280: warn: One of the stats is a legacy stat. Legacy stat is a stat that does not belong to any statistics::Group. Legacy stat is deprecated.
0: system.remote_gdb: listening for remote gdb on port 7001
gem5 Simulator System.  https://www.gem5.org
gem5 is copyrighted software; use the --copyright option for details.

gem5 version 22.1.0.0
gem5 compiled Apr  8 2023 08:33:31
gem5 started Apr 24 2023 02:47:34
gem5 executing on ubuntu, pid 4683
command line: build/X86/gem5.opt configs/example/se.py --cpu-type=X86MinorCPU --mem-type=DDR3_1600_8x8 --caches --l1d_size=64kB --l1i_size=64kB --cpu-clock=1GHz --cmd=/home/xxa/Desktop/Arch_Labs/Lab2/cs251a-microbench-master/sieve --l1d-hwp-type=AMPMPrefetcher

**** REAL SIMULATION ****
warn: The `get_runtime_isa` function is deprecated. Please migrate away from using this function.
warn: The `get_runtime_isa` function is deprecated. Please migrate away from using this function.
warn: No dot file generated. Please install pydot to generate the dot file and pdf.
build/X86/sim/simulate.cc:192: info: Entering event queue @ 0.  Starting simulation...
build/X86/sim/mem_state.cc:443: info: Increasing stack size by one page.
build/X86/sim/syscall_emul.cc:74: warn: ignoring syscall mprotect(...)
Exiting @ tick 105664125000 because exiting with last active thread context




Global frequency set at 1000000000000 ticks per second
build/X86/mem/dram_interface.cc:690: warn: DRAM device capacity (8192 Mbytes) does not match the address range assigned (512 Mbytes)
0: system.remote_gdb: listening for remote gdb on port 7001
gem5 Simulator System.  https://www.gem5.org
gem5 is copyrighted software; use the --copyright option for details.

gem5 version 22.1.0.0
gem5 compiled Apr  8 2023 08:33:31
gem5 started Apr 24 2023 02:49:47
gem5 executing on ubuntu, pid 4736
command line: build/X86/gem5.opt configs/example/se2.py --cpu-type=DerivO3CPU --mem-type=DDR3_1600_8x8 --caches --l1d_size=64kB --l1i_size=64kB --cpu-clock=1GHz --cmd=/home/xxa/Desktop/Arch_Labs/Lab2/cs251a-microbench-master/sieve --l1d-hwp-type=AMPMPrefetcher

**** REAL SIMULATION ****
warn: The `get_runtime_isa` function is deprecated. Please migrate away from using this function.
warn: The `get_runtime_isa` function is deprecated. Please migrate away from using this function.
warn: No dot file generated. Please install pydot to generate the dot file and pdf.
build/X86/sim/simulate.cc:192: info: Entering event queue @ 0.  Starting simulation...
build/X86/arch/x86/cpuid.cc:180: warn: x86 cpuid family 0x0000: unimplemented function 13
build/X86/sim/mem_state.cc:443: info: Increasing stack size by one page.
build/X86/sim/syscall_emul.cc:74: warn: ignoring syscall mprotect(...)
Exiting @ tick 63046573000 because exiting with last active thread context




Global frequency set at 1000000000000 ticks per second
build/X86/mem/dram_interface.cc:690: warn: DRAM device capacity (8192 Mbytes) does not match the address range assigned (512 Mbytes)
0: system.remote_gdb: listening for remote gdb on port 7001
gem5 Simulator System.  https://www.gem5.org
gem5 is copyrighted software; use the --copyright option for details.

gem5 version 22.1.0.0
gem5 compiled Apr  8 2023 08:33:31
gem5 started Apr 24 2023 02:52:09
gem5 executing on ubuntu, pid 4791
command line: build/X86/gem5.opt configs/example/se1.py --cpu-type=DerivO3CPU --mem-type=DDR3_1600_8x8 --caches --l1d_size=64kB --l1i_size=64kB --cpu-clock=4GHz --cmd=/home/xxa/Desktop/Arch_Labs/Lab2/cs251a-microbench-master/sieve --l1d-hwp-type=AMPMPrefetcher

**** REAL SIMULATION ****
warn: The `get_runtime_isa` function is deprecated. Please migrate away from using this function.
warn: The `get_runtime_isa` function is deprecated. Please migrate away from using this function.
warn: No dot file generated. Please install pydot to generate the dot file and pdf.
build/X86/sim/simulate.cc:192: info: Entering event queue @ 0.  Starting simulation...
build/X86/arch/x86/cpuid.cc:180: warn: x86 cpuid family 0x0000: unimplemented function 13
build/X86/sim/mem_state.cc:443: info: Increasing stack size by one page.
build/X86/sim/syscall_emul.cc:74: warn: ignoring syscall mprotect(...)
Exiting @ tick 39036295000 because exiting with last active thread context




Global frequency set at 1000000000000 ticks per second
build/X86/mem/dram_interface.cc:690: warn: DRAM device capacity (8192 Mbytes) does not match the address range assigned (512 Mbytes)
0: system.remote_gdb: listening for remote gdb on port 7001
gem5 Simulator System.  https://www.gem5.org
gem5 is copyrighted software; use the --copyright option for details.

gem5 version 22.1.0.0
gem5 compiled Apr  8 2023 08:33:31
gem5 started Apr 24 2023 02:55:15
gem5 executing on ubuntu, pid 4843
command line: build/X86/gem5.opt configs/example/se1.py --cpu-type=DerivO3CPU --mem-type=DDR3_1600_8x8 --caches --l1d_size=64kB --l1i_size=64kB --l2cache --l2_size=256kB --cpu-clock=1GHz --cmd=/home/xxa/Desktop/Arch_Labs/Lab2/cs251a-microbench-master/sieve --l1d-hwp-type=AMPMPrefetcher --l2-hwp-type=AMPMPrefetcher

**** REAL SIMULATION ****
warn: The `get_runtime_isa` function is deprecated. Please migrate away from using this function.
warn: The `get_runtime_isa` function is deprecated. Please migrate away from using this function.
warn: No dot file generated. Please install pydot to generate the dot file and pdf.
build/X86/sim/simulate.cc:192: info: Entering event queue @ 0.  Starting simulation...
build/X86/arch/x86/cpuid.cc:180: warn: x86 cpuid family 0x0000: unimplemented function 13
build/X86/sim/mem_state.cc:443: info: Increasing stack size by one page.
build/X86/sim/syscall_emul.cc:74: warn: ignoring syscall mprotect(...)
Exiting @ tick 67137251000 because exiting with last active thread context




Global frequency set at 1000000000000 ticks per second
build/X86/mem/dram_interface.cc:690: warn: DRAM device capacity (8192 Mbytes) does not match the address range assigned (512 Mbytes)
0: system.remote_gdb: listening for remote gdb on port 7001
gem5 Simulator System.  https://www.gem5.org
gem5 is copyrighted software; use the --copyright option for details.

gem5 version 22.1.0.0
gem5 compiled Apr  8 2023 08:33:31
gem5 started Apr 24 2023 02:57:44
gem5 executing on ubuntu, pid 4899
command line: build/X86/gem5.opt configs/example/se1.py --cpu-type=DerivO3CPU --mem-type=DDR3_1600_8x8 --caches --l1d_size=64kB --l1i_size=64kB --l2cache --l2_size=2MB --cpu-clock=1GHz --cmd=/home/xxa/Desktop/Arch_Labs/Lab2/cs251a-microbench-master/sieve --l1d-hwp-type=AMPMPrefetcher --l2-hwp-type=AMPMPrefetcher

**** REAL SIMULATION ****
warn: The `get_runtime_isa` function is deprecated. Please migrate away from using this function.
warn: The `get_runtime_isa` function is deprecated. Please migrate away from using this function.
warn: No dot file generated. Please install pydot to generate the dot file and pdf.
build/X86/sim/simulate.cc:192: info: Entering event queue @ 0.  Starting simulation...
build/X86/arch/x86/cpuid.cc:180: warn: x86 cpuid family 0x0000: unimplemented function 13
build/X86/sim/mem_state.cc:443: info: Increasing stack size by one page.
build/X86/sim/syscall_emul.cc:74: warn: ignoring syscall mprotect(...)
Exiting @ tick 44624801000 because exiting with last active thread context




Global frequency set at 1000000000000 ticks per second
build/X86/mem/dram_interface.cc:690: warn: DRAM device capacity (8192 Mbytes) does not match the address range assigned (512 Mbytes)
0: system.remote_gdb: listening for remote gdb on port 7001
gem5 Simulator System.  https://www.gem5.org
gem5 is copyrighted software; use the --copyright option for details.

gem5 version 22.1.0.0
gem5 compiled Apr  8 2023 08:33:31
gem5 started Apr 24 2023 02:59:56
gem5 executing on ubuntu, pid 4953
command line: build/X86/gem5.opt configs/example/se1.py --cpu-type=DerivO3CPU --mem-type=DDR3_1600_8x8 --caches --l1d_size=64kB --l1i_size=64kB --l2cache --l2_size=16MB --cpu-clock=1GHz --cmd=/home/xxa/Desktop/Arch_Labs/Lab2/cs251a-microbench-master/sieve --l1d-hwp-type=AMPMPrefetcher --l2-hwp-type=AMPMPrefetcher

**** REAL SIMULATION ****
warn: The `get_runtime_isa` function is deprecated. Please migrate away from using this function.
warn: The `get_runtime_isa` function is deprecated. Please migrate away from using this function.
warn: No dot file generated. Please install pydot to generate the dot file and pdf.
build/X86/sim/simulate.cc:192: info: Entering event queue @ 0.  Starting simulation...
build/X86/arch/x86/cpuid.cc:180: warn: x86 cpuid family 0x0000: unimplemented function 13
build/X86/sim/mem_state.cc:443: info: Increasing stack size by one page.
build/X86/sim/syscall_emul.cc:74: warn: ignoring syscall mprotect(...)
Exiting @ tick 44624801000 because exiting with last active thread context








Global frequency set at 1000000000000 ticks per second
build/X86/mem/dram_interface.cc:690: warn: DRAM device capacity (8192 Mbytes) does not match the address range assigned (512 Mbytes)
0: system.remote_gdb: listening for remote gdb on port 7001
gem5 Simulator System.  https://www.gem5.org
gem5 is copyrighted software; use the --copyright option for details.

gem5 version 22.1.0.0
gem5 compiled Apr  8 2023 08:33:31
gem5 started Apr 24 2023 03:02:07
gem5 executing on ubuntu, pid 5015
command line: build/X86/gem5.opt configs/example/se1.py --cpu-type=DerivO3CPU --mem-type=DDR3_1600_8x8 --caches --l1d_size=64kB --l1i_size=64kB --cpu-clock=1GHz --cmd=/home/xxa/Desktop/Arch_Labs/Lab2/cs251a-microbench-master/spmv --l1d-hwp-type=AMPMPrefetcher

**** REAL SIMULATION ****
warn: The `get_runtime_isa` function is deprecated. Please migrate away from using this function.
warn: The `get_runtime_isa` function is deprecated. Please migrate away from using this function.
warn: No dot file generated. Please install pydot to generate the dot file and pdf.
build/X86/sim/simulate.cc:192: info: Entering event queue @ 0.  Starting simulation...
build/X86/arch/x86/cpuid.cc:180: warn: x86 cpuid family 0x0000: unimplemented function 13
build/X86/sim/mem_state.cc:443: info: Increasing stack size by one page.
build/X86/sim/syscall_emul.cc:74: warn: ignoring syscall mprotect(...)
build/X86/sim/mem_state.cc:443: info: Increasing stack size by one page.
build/X86/sim/mem_state.cc:443: info: Increasing stack size by one page.
build/X86/sim/mem_state.cc:443: info: Increasing stack size by one page.
build/X86/sim/mem_state.cc:443: info: Increasing stack size by one page.
build/X86/sim/mem_state.cc:443: info: Increasing stack size by one page.
build/X86/sim/mem_state.cc:443: info: Increasing stack size by one page.
build/X86/sim/mem_state.cc:443: info: Increasing stack size by one page.
Exiting @ tick 135675783000 because exiting with last active thread context




Global frequency set at 1000000000000 ticks per second
build/X86/mem/dram_interface.cc:690: warn: DRAM device capacity (8192 Mbytes) does not match the address range assigned (512 Mbytes)
build/X86/base/statistics.hh:280: warn: One of the stats is a legacy stat. Legacy stat is a stat that does not belong to any statistics::Group. Legacy stat is deprecated.
build/X86/base/statistics.hh:280: warn: One of the stats is a legacy stat. Legacy stat is a stat that does not belong to any statistics::Group. Legacy stat is deprecated.
0: system.remote_gdb: listening for remote gdb on port 7001
gem5 Simulator System.  https://www.gem5.org
gem5 is copyrighted software; use the --copyright option for details.

gem5 version 22.1.0.0
gem5 compiled Apr  8 2023 08:33:31
gem5 started Apr 24 2023 03:05:29
gem5 executing on ubuntu, pid 5166
command line: build/X86/gem5.opt configs/example/se.py --cpu-type=X86MinorCPU --mem-type=DDR3_1600_8x8 --caches --l1d_size=64kB --l1i_size=64kB --cpu-clock=1GHz --cmd=/home/xxa/Desktop/Arch_Labs/Lab2/cs251a-microbench-master/spmv --l1d-hwp-type=AMPMPrefetcher

**** REAL SIMULATION ****
warn: The `get_runtime_isa` function is deprecated. Please migrate away from using this function.
warn: The `get_runtime_isa` function is deprecated. Please migrate away from using this function.
warn: No dot file generated. Please install pydot to generate the dot file and pdf.
build/X86/sim/simulate.cc:192: info: Entering event queue @ 0.  Starting simulation...
build/X86/sim/mem_state.cc:443: info: Increasing stack size by one page.
build/X86/sim/syscall_emul.cc:74: warn: ignoring syscall mprotect(...)
build/X86/sim/mem_state.cc:443: info: Increasing stack size by one page.
build/X86/sim/mem_state.cc:443: info: Increasing stack size by one page.
build/X86/sim/mem_state.cc:443: info: Increasing stack size by one page.
build/X86/sim/mem_state.cc:443: info: Increasing stack size by one page.
build/X86/sim/mem_state.cc:443: info: Increasing stack size by one page.
build/X86/sim/mem_state.cc:443: info: Increasing stack size by one page.
build/X86/sim/mem_state.cc:443: info: Increasing stack size by one page.
Exiting @ tick 169529392000 because exiting with last active thread context




Global frequency set at 1000000000000 ticks per second
build/X86/mem/dram_interface.cc:690: warn: DRAM device capacity (8192 Mbytes) does not match the address range assigned (512 Mbytes)
0: system.remote_gdb: listening for remote gdb on port 7001
gem5 Simulator System.  https://www.gem5.org
gem5 is copyrighted software; use the --copyright option for details.

gem5 version 22.1.0.0
gem5 compiled Apr  8 2023 08:33:31
gem5 started Apr 24 2023 03:07:56
gem5 executing on ubuntu, pid 5214
command line: build/X86/gem5.opt configs/example/se2.py --cpu-type=DerivO3CPU --mem-type=DDR3_1600_8x8 --caches --l1d_size=64kB --l1i_size=64kB --cpu-clock=1GHz --cmd=/home/xxa/Desktop/Arch_Labs/Lab2/cs251a-microbench-master/spmv --l1d-hwp-type=AMPMPrefetcher

**** REAL SIMULATION ****
warn: The `get_runtime_isa` function is deprecated. Please migrate away from using this function.
warn: The `get_runtime_isa` function is deprecated. Please migrate away from using this function.
warn: No dot file generated. Please install pydot to generate the dot file and pdf.
build/X86/sim/simulate.cc:192: info: Entering event queue @ 0.  Starting simulation...
build/X86/arch/x86/cpuid.cc:180: warn: x86 cpuid family 0x0000: unimplemented function 13
build/X86/sim/mem_state.cc:443: info: Increasing stack size by one page.
build/X86/sim/syscall_emul.cc:74: warn: ignoring syscall mprotect(...)
build/X86/sim/mem_state.cc:443: info: Increasing stack size by one page.
build/X86/sim/mem_state.cc:443: info: Increasing stack size by one page.
build/X86/sim/mem_state.cc:443: info: Increasing stack size by one page.
build/X86/sim/mem_state.cc:443: info: Increasing stack size by one page.
build/X86/sim/mem_state.cc:443: info: Increasing stack size by one page.
build/X86/sim/mem_state.cc:443: info: Increasing stack size by one page.
build/X86/sim/mem_state.cc:443: info: Increasing stack size by one page.
Exiting @ tick 139037126000 because exiting with last active thread context




Global frequency set at 1000000000000 ticks per second
build/X86/mem/dram_interface.cc:690: warn: DRAM device capacity (8192 Mbytes) does not match the address range assigned (512 Mbytes)
0: system.remote_gdb: listening for remote gdb on port 7001
gem5 Simulator System.  https://www.gem5.org
gem5 is copyrighted software; use the --copyright option for details.

gem5 version 22.1.0.0
gem5 compiled Apr  8 2023 08:33:31
gem5 started Apr 24 2023 03:11:22
gem5 executing on ubuntu, pid 5266
command line: build/X86/gem5.opt configs/example/se1.py --cpu-type=DerivO3CPU --mem-type=DDR3_1600_8x8 --caches --l1d_size=64kB --l1i_size=64kB --cpu-clock=4GHz --cmd=/home/xxa/Desktop/Arch_Labs/Lab2/cs251a-microbench-master/spmv --l1d-hwp-type=AMPMPrefetcher

**** REAL SIMULATION ****
warn: The `get_runtime_isa` function is deprecated. Please migrate away from using this function.
warn: The `get_runtime_isa` function is deprecated. Please migrate away from using this function.
warn: No dot file generated. Please install pydot to generate the dot file and pdf.
build/X86/sim/simulate.cc:192: info: Entering event queue @ 0.  Starting simulation...
build/X86/arch/x86/cpuid.cc:180: warn: x86 cpuid family 0x0000: unimplemented function 13
build/X86/sim/mem_state.cc:443: info: Increasing stack size by one page.
build/X86/sim/syscall_emul.cc:74: warn: ignoring syscall mprotect(...)
build/X86/sim/mem_state.cc:443: info: Increasing stack size by one page.
build/X86/sim/mem_state.cc:443: info: Increasing stack size by one page.
build/X86/sim/mem_state.cc:443: info: Increasing stack size by one page.
build/X86/sim/mem_state.cc:443: info: Increasing stack size by one page.
build/X86/sim/mem_state.cc:443: info: Increasing stack size by one page.
build/X86/sim/mem_state.cc:443: info: Increasing stack size by one page.
build/X86/sim/mem_state.cc:443: info: Increasing stack size by one page.
Exiting @ tick 96184807750 because exiting with last active thread context




Global frequency set at 1000000000000 ticks per second
build/X86/mem/dram_interface.cc:690: warn: DRAM device capacity (8192 Mbytes) does not match the address range assigned (512 Mbytes)
0: system.remote_gdb: listening for remote gdb on port 7001
gem5 Simulator System.  https://www.gem5.org
gem5 is copyrighted software; use the --copyright option for details.

gem5 version 22.1.0.0
gem5 compiled Apr  8 2023 08:33:31
gem5 started Apr 24 2023 03:16:30
gem5 executing on ubuntu, pid 5314
command line: build/X86/gem5.opt configs/example/se1.py --cpu-type=DerivO3CPU --mem-type=DDR3_1600_8x8 --caches --l1d_size=64kB --l1i_size=64kB --l2cache --l2_size=256kB --cpu-clock=1GHz --cmd=/home/xxa/Desktop/Arch_Labs/Lab2/cs251a-microbench-master/spmv --l1d-hwp-type=AMPMPrefetcher --l2-hwp-type=AMPMPrefetcher

**** REAL SIMULATION ****
warn: The `get_runtime_isa` function is deprecated. Please migrate away from using this function.
warn: The `get_runtime_isa` function is deprecated. Please migrate away from using this function.
warn: No dot file generated. Please install pydot to generate the dot file and pdf.
build/X86/sim/simulate.cc:192: info: Entering event queue @ 0.  Starting simulation...
build/X86/arch/x86/cpuid.cc:180: warn: x86 cpuid family 0x0000: unimplemented function 13
build/X86/sim/mem_state.cc:443: info: Increasing stack size by one page.
build/X86/sim/syscall_emul.cc:74: warn: ignoring syscall mprotect(...)
build/X86/sim/mem_state.cc:443: info: Increasing stack size by one page.
build/X86/sim/mem_state.cc:443: info: Increasing stack size by one page.
build/X86/sim/mem_state.cc:443: info: Increasing stack size by one page.
build/X86/sim/mem_state.cc:443: info: Increasing stack size by one page.
build/X86/sim/mem_state.cc:443: info: Increasing stack size by one page.
build/X86/sim/mem_state.cc:443: info: Increasing stack size by one page.
build/X86/sim/mem_state.cc:443: info: Increasing stack size by one page.
Exiting @ tick 97315866000 because exiting with last active thread context




Global frequency set at 1000000000000 ticks per second
build/X86/mem/dram_interface.cc:690: warn: DRAM device capacity (8192 Mbytes) does not match the address range assigned (512 Mbytes)
0: system.remote_gdb: listening for remote gdb on port 7001
gem5 Simulator System.  https://www.gem5.org
gem5 is copyrighted software; use the --copyright option for details.

gem5 version 22.1.0.0
gem5 compiled Apr  8 2023 08:33:31
gem5 started Apr 24 2023 03:19:38
gem5 executing on ubuntu, pid 5369
command line: build/X86/gem5.opt configs/example/se1.py --cpu-type=DerivO3CPU --mem-type=DDR3_1600_8x8 --caches --l1d_size=64kB --l1i_size=64kB --l2cache --l2_size=2MB --cpu-clock=1GHz --cmd=/home/xxa/Desktop/Arch_Labs/Lab2/cs251a-microbench-master/spmv --l1d-hwp-type=AMPMPrefetcher --l2-hwp-type=AMPMPrefetcher

**** REAL SIMULATION ****
warn: The `get_runtime_isa` function is deprecated. Please migrate away from using this function.
warn: The `get_runtime_isa` function is deprecated. Please migrate away from using this function.
warn: No dot file generated. Please install pydot to generate the dot file and pdf.
build/X86/sim/simulate.cc:192: info: Entering event queue @ 0.  Starting simulation...
build/X86/arch/x86/cpuid.cc:180: warn: x86 cpuid family 0x0000: unimplemented function 13
build/X86/sim/mem_state.cc:443: info: Increasing stack size by one page.
build/X86/sim/syscall_emul.cc:74: warn: ignoring syscall mprotect(...)
build/X86/sim/mem_state.cc:443: info: Increasing stack size by one page.
build/X86/sim/mem_state.cc:443: info: Increasing stack size by one page.
build/X86/sim/mem_state.cc:443: info: Increasing stack size by one page.
build/X86/sim/mem_state.cc:443: info: Increasing stack size by one page.
build/X86/sim/mem_state.cc:443: info: Increasing stack size by one page.
build/X86/sim/mem_state.cc:443: info: Increasing stack size by one page.
build/X86/sim/mem_state.cc:443: info: Increasing stack size by one page.
Exiting @ tick 85603865000 because exiting with last active thread context




Global frequency set at 1000000000000 ticks per second
build/X86/mem/dram_interface.cc:690: warn: DRAM device capacity (8192 Mbytes) does not match the address range assigned (512 Mbytes)
0: system.remote_gdb: listening for remote gdb on port 7001
gem5 Simulator System.  https://www.gem5.org
gem5 is copyrighted software; use the --copyright option for details.

gem5 version 22.1.0.0
gem5 compiled Apr  8 2023 08:33:31
gem5 started Apr 24 2023 03:22:37
gem5 executing on ubuntu, pid 5417
command line: build/X86/gem5.opt configs/example/se1.py --cpu-type=DerivO3CPU --mem-type=DDR3_1600_8x8 --caches --l1d_size=64kB --l1i_size=64kB --l2cache --l2_size=16MB --cpu-clock=1GHz --cmd=/home/xxa/Desktop/Arch_Labs/Lab2/cs251a-microbench-master/spmv --l1d-hwp-type=AMPMPrefetcher --l2-hwp-type=AMPMPrefetcher

**** REAL SIMULATION ****
warn: The `get_runtime_isa` function is deprecated. Please migrate away from using this function.
warn: The `get_runtime_isa` function is deprecated. Please migrate away from using this function.
warn: No dot file generated. Please install pydot to generate the dot file and pdf.
build/X86/sim/simulate.cc:192: info: Entering event queue @ 0.  Starting simulation...
build/X86/arch/x86/cpuid.cc:180: warn: x86 cpuid family 0x0000: unimplemented function 13
build/X86/sim/mem_state.cc:443: info: Increasing stack size by one page.
build/X86/sim/syscall_emul.cc:74: warn: ignoring syscall mprotect(...)
build/X86/sim/mem_state.cc:443: info: Increasing stack size by one page.
build/X86/sim/mem_state.cc:443: info: Increasing stack size by one page.
build/X86/sim/mem_state.cc:443: info: Increasing stack size by one page.
build/X86/sim/mem_state.cc:443: info: Increasing stack size by one page.
build/X86/sim/mem_state.cc:443: info: Increasing stack size by one page.
build/X86/sim/mem_state.cc:443: info: Increasing stack size by one page.
build/X86/sim/mem_state.cc:443: info: Increasing stack size by one page.
Exiting @ tick 84618356000 because exiting with last active thread context








