Global frequency set at 1000000000000 ticks per second
build/X86/mem/dram_interface.cc:690: warn: DRAM device capacity (8192 Mbytes) does not match the address range assigned (512 Mbytes)
0: system.remote_gdb: listening for remote gdb on port 7001
gem5 Simulator System.  https://www.gem5.org
gem5 is copyrighted software; use the --copyright option for details.

gem5 version 22.1.0.0
gem5 compiled Apr  8 2023 08:33:31
gem5 started Apr 10 2023 05:09:01
gem5 executing on ubuntu, pid 30982
command line: build/X86/gem5.opt configs/example/se1.py --cpu-type=DerivO3CPU --mem-type=DDR3_1600_8x8 --caches --l1d_size=64kB --l1i_size=64kB --cpu-clock=1GHz --cmd=/home/xxa/Desktop/Arch_Labs/Lab2/cs251a-microbench-master/lfsr

**** REAL SIMULATION ****
warn: The `get_runtime_isa` function is deprecated. Please migrate away from using this function.
warn: The `get_runtime_isa` function is deprecated. Please migrate away from using this function.
warn: No dot file generated. Please install pydot to generate the dot file and pdf.
build/X86/sim/simulate.cc:192: info: Entering event queue @ 0.  Starting simulation...
build/X86/arch/x86/cpuid.cc:180: warn: x86 cpuid family 0x0000: unimplemented function 13
build/X86/sim/mem_state.cc:443: info: Increasing stack size by one page.
build/X86/sim/syscall_emul.cc:74: warn: ignoring syscall mprotect(...)
Exiting @ tick 33661000 because exiting with last active thread context




Global frequency set at 1000000000000 ticks per second
build/X86/mem/dram_interface.cc:690: warn: DRAM device capacity (8192 Mbytes) does not match the address range assigned (512 Mbytes)
build/X86/base/statistics.hh:280: warn: One of the stats is a legacy stat. Legacy stat is a stat that does not belong to any statistics::Group. Legacy stat is deprecated.
build/X86/base/statistics.hh:280: warn: One of the stats is a legacy stat. Legacy stat is a stat that does not belong to any statistics::Group. Legacy stat is deprecated.
0: system.remote_gdb: listening for remote gdb on port 7001
gem5 Simulator System.  https://www.gem5.org
gem5 is copyrighted software; use the --copyright option for details.

gem5 version 22.1.0.0
gem5 compiled Apr  8 2023 08:33:31
gem5 started Apr 10 2023 05:09:01
gem5 executing on ubuntu, pid 30984
command line: build/X86/gem5.opt configs/example/se.py --cpu-type=X86MinorCPU --mem-type=DDR3_1600_8x8 --caches --l1d_size=64kB --l1i_size=64kB --cpu-clock=1GHz --cmd=/home/xxa/Desktop/Arch_Labs/Lab2/cs251a-microbench-master/lfsr

**** REAL SIMULATION ****
warn: The `get_runtime_isa` function is deprecated. Please migrate away from using this function.
warn: The `get_runtime_isa` function is deprecated. Please migrate away from using this function.
warn: No dot file generated. Please install pydot to generate the dot file and pdf.
build/X86/sim/simulate.cc:192: info: Entering event queue @ 0.  Starting simulation...
build/X86/sim/mem_state.cc:443: info: Increasing stack size by one page.
build/X86/sim/syscall_emul.cc:74: warn: ignoring syscall mprotect(...)
Exiting @ tick 59732000 because exiting with last active thread context




Global frequency set at 1000000000000 ticks per second
build/X86/mem/dram_interface.cc:690: warn: DRAM device capacity (8192 Mbytes) does not match the address range assigned (512 Mbytes)
0: system.remote_gdb: listening for remote gdb on port 7001
gem5 Simulator System.  https://www.gem5.org
gem5 is copyrighted software; use the --copyright option for details.

gem5 version 22.1.0.0
gem5 compiled Apr  8 2023 08:33:31
gem5 started Apr 10 2023 05:09:01
gem5 executing on ubuntu, pid 31017
command line: build/X86/gem5.opt configs/example/se2.py --cpu-type=DerivO3CPU --mem-type=DDR3_1600_8x8 --caches --l1d_size=64kB --l1i_size=64kB --cpu-clock=1GHz --cmd=/home/xxa/Desktop/Arch_Labs/Lab2/cs251a-microbench-master/lfsr

**** REAL SIMULATION ****
warn: The `get_runtime_isa` function is deprecated. Please migrate away from using this function.
warn: The `get_runtime_isa` function is deprecated. Please migrate away from using this function.
warn: No dot file generated. Please install pydot to generate the dot file and pdf.
build/X86/sim/simulate.cc:192: info: Entering event queue @ 0.  Starting simulation...
build/X86/arch/x86/cpuid.cc:180: warn: x86 cpuid family 0x0000: unimplemented function 13
build/X86/sim/mem_state.cc:443: info: Increasing stack size by one page.
build/X86/sim/syscall_emul.cc:74: warn: ignoring syscall mprotect(...)
Exiting @ tick 35684000 because exiting with last active thread context




Global frequency set at 1000000000000 ticks per second
build/X86/mem/dram_interface.cc:690: warn: DRAM device capacity (8192 Mbytes) does not match the address range assigned (512 Mbytes)
0: system.remote_gdb: listening for remote gdb on port 7001
gem5 Simulator System.  https://www.gem5.org
gem5 is copyrighted software; use the --copyright option for details.

gem5 version 22.1.0.0
gem5 compiled Apr  8 2023 08:33:31
gem5 started Apr 10 2023 05:09:02
gem5 executing on ubuntu, pid 31028
command line: build/X86/gem5.opt configs/example/se1.py --cpu-type=DerivO3CPU --mem-type=DDR3_1600_8x8 --caches --l1d_size=64kB --l1i_size=64kB --cpu-clock=4GHz --cmd=/home/xxa/Desktop/Arch_Labs/Lab2/cs251a-microbench-master/lfsr

**** REAL SIMULATION ****
warn: The `get_runtime_isa` function is deprecated. Please migrate away from using this function.
warn: The `get_runtime_isa` function is deprecated. Please migrate away from using this function.
warn: No dot file generated. Please install pydot to generate the dot file and pdf.
build/X86/sim/simulate.cc:192: info: Entering event queue @ 0.  Starting simulation...
build/X86/arch/x86/cpuid.cc:180: warn: x86 cpuid family 0x0000: unimplemented function 13
build/X86/sim/mem_state.cc:443: info: Increasing stack size by one page.
build/X86/sim/syscall_emul.cc:74: warn: ignoring syscall mprotect(...)
Exiting @ tick 26740500 because exiting with last active thread context




Global frequency set at 1000000000000 ticks per second
build/X86/mem/dram_interface.cc:690: warn: DRAM device capacity (8192 Mbytes) does not match the address range assigned (512 Mbytes)
0: system.remote_gdb: listening for remote gdb on port 7001
gem5 Simulator System.  https://www.gem5.org
gem5 is copyrighted software; use the --copyright option for details.

gem5 version 22.1.0.0
gem5 compiled Apr  8 2023 08:33:31
gem5 started Apr 10 2023 05:09:02
gem5 executing on ubuntu, pid 31040
command line: build/X86/gem5.opt configs/example/se1.py --cpu-type=DerivO3CPU --mem-type=DDR3_1600_8x8 --caches --l1d_size=64kB --l1i_size=64kB --l2cache --l2_size=256kB --cpu-clock=1GHz --cmd=/home/xxa/Desktop/Arch_Labs/Lab2/cs251a-microbench-master/lfsr

**** REAL SIMULATION ****
warn: The `get_runtime_isa` function is deprecated. Please migrate away from using this function.
warn: The `get_runtime_isa` function is deprecated. Please migrate away from using this function.
warn: No dot file generated. Please install pydot to generate the dot file and pdf.
build/X86/sim/simulate.cc:192: info: Entering event queue @ 0.  Starting simulation...
build/X86/arch/x86/cpuid.cc:180: warn: x86 cpuid family 0x0000: unimplemented function 13
build/X86/sim/mem_state.cc:443: info: Increasing stack size by one page.
build/X86/sim/syscall_emul.cc:74: warn: ignoring syscall mprotect(...)
Exiting @ tick 50843000 because exiting with last active thread context




Global frequency set at 1000000000000 ticks per second
build/X86/mem/dram_interface.cc:690: warn: DRAM device capacity (8192 Mbytes) does not match the address range assigned (512 Mbytes)
0: system.remote_gdb: listening for remote gdb on port 7001
gem5 Simulator System.  https://www.gem5.org
gem5 is copyrighted software; use the --copyright option for details.

gem5 version 22.1.0.0
gem5 compiled Apr  8 2023 08:33:31
gem5 started Apr 10 2023 05:09:03
gem5 executing on ubuntu, pid 31053
command line: build/X86/gem5.opt configs/example/se1.py --cpu-type=DerivO3CPU --mem-type=DDR3_1600_8x8 --caches --l1d_size=64kB --l1i_size=64kB --l2cache --l2_size=2MB --cpu-clock=1GHz --cmd=/home/xxa/Desktop/Arch_Labs/Lab2/cs251a-microbench-master/lfsr

**** REAL SIMULATION ****
warn: The `get_runtime_isa` function is deprecated. Please migrate away from using this function.
warn: The `get_runtime_isa` function is deprecated. Please migrate away from using this function.
warn: No dot file generated. Please install pydot to generate the dot file and pdf.
build/X86/sim/simulate.cc:192: info: Entering event queue @ 0.  Starting simulation...
build/X86/arch/x86/cpuid.cc:180: warn: x86 cpuid family 0x0000: unimplemented function 13
build/X86/sim/mem_state.cc:443: info: Increasing stack size by one page.
build/X86/sim/syscall_emul.cc:74: warn: ignoring syscall mprotect(...)
Exiting @ tick 50843000 because exiting with last active thread context




Global frequency set at 1000000000000 ticks per second
build/X86/mem/dram_interface.cc:690: warn: DRAM device capacity (8192 Mbytes) does not match the address range assigned (512 Mbytes)
0: system.remote_gdb: listening for remote gdb on port 7001
gem5 Simulator System.  https://www.gem5.org
gem5 is copyrighted software; use the --copyright option for details.

gem5 version 22.1.0.0
gem5 compiled Apr  8 2023 08:33:31
gem5 started Apr 10 2023 05:09:03
gem5 executing on ubuntu, pid 31068
command line: build/X86/gem5.opt configs/example/se1.py --cpu-type=DerivO3CPU --mem-type=DDR3_1600_8x8 --caches --l1d_size=64kB --l1i_size=64kB --l2cache --l2_size=16MB --cpu-clock=1GHz --cmd=/home/xxa/Desktop/Arch_Labs/Lab2/cs251a-microbench-master/lfsr

**** REAL SIMULATION ****
warn: The `get_runtime_isa` function is deprecated. Please migrate away from using this function.
warn: The `get_runtime_isa` function is deprecated. Please migrate away from using this function.
warn: No dot file generated. Please install pydot to generate the dot file and pdf.
build/X86/sim/simulate.cc:192: info: Entering event queue @ 0.  Starting simulation...
build/X86/arch/x86/cpuid.cc:180: warn: x86 cpuid family 0x0000: unimplemented function 13
build/X86/sim/mem_state.cc:443: info: Increasing stack size by one page.
build/X86/sim/syscall_emul.cc:74: warn: ignoring syscall mprotect(...)
Exiting @ tick 50843000 because exiting with last active thread context








Global frequency set at 1000000000000 ticks per second
build/X86/mem/dram_interface.cc:690: warn: DRAM device capacity (8192 Mbytes) does not match the address range assigned (512 Mbytes)
0: system.remote_gdb: listening for remote gdb on port 7001
gem5 Simulator System.  https://www.gem5.org
gem5 is copyrighted software; use the --copyright option for details.

gem5 version 22.1.0.0
gem5 compiled Apr  8 2023 08:33:31
gem5 started Apr 10 2023 05:09:04
gem5 executing on ubuntu, pid 31080
command line: build/X86/gem5.opt configs/example/se1.py --cpu-type=DerivO3CPU --mem-type=DDR3_1600_8x8 --caches --l1d_size=64kB --l1i_size=64kB --cpu-clock=1GHz --cmd=/home/xxa/Desktop/Arch_Labs/Lab2/cs251a-microbench-master/merge

**** REAL SIMULATION ****
warn: The `get_runtime_isa` function is deprecated. Please migrate away from using this function.
warn: The `get_runtime_isa` function is deprecated. Please migrate away from using this function.
warn: No dot file generated. Please install pydot to generate the dot file and pdf.
build/X86/sim/simulate.cc:192: info: Entering event queue @ 0.  Starting simulation...
build/X86/arch/x86/cpuid.cc:180: warn: x86 cpuid family 0x0000: unimplemented function 13
build/X86/sim/mem_state.cc:443: info: Increasing stack size by one page.
build/X86/sim/syscall_emul.cc:74: warn: ignoring syscall mprotect(...)
Exiting @ tick 1770076000 because exiting with last active thread context




Global frequency set at 1000000000000 ticks per second
build/X86/mem/dram_interface.cc:690: warn: DRAM device capacity (8192 Mbytes) does not match the address range assigned (512 Mbytes)
build/X86/base/statistics.hh:280: warn: One of the stats is a legacy stat. Legacy stat is a stat that does not belong to any statistics::Group. Legacy stat is deprecated.
build/X86/base/statistics.hh:280: warn: One of the stats is a legacy stat. Legacy stat is a stat that does not belong to any statistics::Group. Legacy stat is deprecated.
0: system.remote_gdb: listening for remote gdb on port 7001
gem5 Simulator System.  https://www.gem5.org
gem5 is copyrighted software; use the --copyright option for details.

gem5 version 22.1.0.0
gem5 compiled Apr  8 2023 08:33:31
gem5 started Apr 10 2023 05:09:17
gem5 executing on ubuntu, pid 31101
command line: build/X86/gem5.opt configs/example/se.py --cpu-type=X86MinorCPU --mem-type=DDR3_1600_8x8 --caches --l1d_size=64kB --l1i_size=64kB --cpu-clock=1GHz --cmd=/home/xxa/Desktop/Arch_Labs/Lab2/cs251a-microbench-master/merge

**** REAL SIMULATION ****
warn: The `get_runtime_isa` function is deprecated. Please migrate away from using this function.
warn: The `get_runtime_isa` function is deprecated. Please migrate away from using this function.
warn: No dot file generated. Please install pydot to generate the dot file and pdf.
build/X86/sim/simulate.cc:192: info: Entering event queue @ 0.  Starting simulation...
build/X86/sim/mem_state.cc:443: info: Increasing stack size by one page.
build/X86/sim/syscall_emul.cc:74: warn: ignoring syscall mprotect(...)
Exiting @ tick 4674848000 because exiting with last active thread context




Global frequency set at 1000000000000 ticks per second
build/X86/mem/dram_interface.cc:690: warn: DRAM device capacity (8192 Mbytes) does not match the address range assigned (512 Mbytes)
0: system.remote_gdb: listening for remote gdb on port 7001
gem5 Simulator System.  https://www.gem5.org
gem5 is copyrighted software; use the --copyright option for details.

gem5 version 22.1.0.0
gem5 compiled Apr  8 2023 08:33:31
gem5 started Apr 10 2023 05:09:29
gem5 executing on ubuntu, pid 31135
command line: build/X86/gem5.opt configs/example/se2.py --cpu-type=DerivO3CPU --mem-type=DDR3_1600_8x8 --caches --l1d_size=64kB --l1i_size=64kB --cpu-clock=1GHz --cmd=/home/xxa/Desktop/Arch_Labs/Lab2/cs251a-microbench-master/merge

**** REAL SIMULATION ****
warn: The `get_runtime_isa` function is deprecated. Please migrate away from using this function.
warn: The `get_runtime_isa` function is deprecated. Please migrate away from using this function.
warn: No dot file generated. Please install pydot to generate the dot file and pdf.
build/X86/sim/simulate.cc:192: info: Entering event queue @ 0.  Starting simulation...
build/X86/arch/x86/cpuid.cc:180: warn: x86 cpuid family 0x0000: unimplemented function 13
build/X86/sim/mem_state.cc:443: info: Increasing stack size by one page.
build/X86/sim/syscall_emul.cc:74: warn: ignoring syscall mprotect(...)
Exiting @ tick 3075236000 because exiting with last active thread context




Global frequency set at 1000000000000 ticks per second
build/X86/mem/dram_interface.cc:690: warn: DRAM device capacity (8192 Mbytes) does not match the address range assigned (512 Mbytes)
0: system.remote_gdb: listening for remote gdb on port 7001
gem5 Simulator System.  https://www.gem5.org
gem5 is copyrighted software; use the --copyright option for details.

gem5 version 22.1.0.0
gem5 compiled Apr  8 2023 08:33:31
gem5 started Apr 10 2023 05:09:45
gem5 executing on ubuntu, pid 31172
command line: build/X86/gem5.opt configs/example/se1.py --cpu-type=DerivO3CPU --mem-type=DDR3_1600_8x8 --caches --l1d_size=64kB --l1i_size=64kB --cpu-clock=4GHz --cmd=/home/xxa/Desktop/Arch_Labs/Lab2/cs251a-microbench-master/merge

**** REAL SIMULATION ****
warn: The `get_runtime_isa` function is deprecated. Please migrate away from using this function.
warn: The `get_runtime_isa` function is deprecated. Please migrate away from using this function.
warn: No dot file generated. Please install pydot to generate the dot file and pdf.
build/X86/sim/simulate.cc:192: info: Entering event queue @ 0.  Starting simulation...
build/X86/arch/x86/cpuid.cc:180: warn: x86 cpuid family 0x0000: unimplemented function 13
build/X86/sim/mem_state.cc:443: info: Increasing stack size by one page.
build/X86/sim/syscall_emul.cc:74: warn: ignoring syscall mprotect(...)
Exiting @ tick 486378500 because exiting with last active thread context




Global frequency set at 1000000000000 ticks per second
build/X86/mem/dram_interface.cc:690: warn: DRAM device capacity (8192 Mbytes) does not match the address range assigned (512 Mbytes)
0: system.remote_gdb: listening for remote gdb on port 7001
gem5 Simulator System.  https://www.gem5.org
gem5 is copyrighted software; use the --copyright option for details.

gem5 version 22.1.0.0
gem5 compiled Apr  8 2023 08:33:31
gem5 started Apr 10 2023 05:09:58
gem5 executing on ubuntu, pid 31208
command line: build/X86/gem5.opt configs/example/se1.py --cpu-type=DerivO3CPU --mem-type=DDR3_1600_8x8 --caches --l1d_size=64kB --l1i_size=64kB --l2cache --l2_size=256kB --cpu-clock=1GHz --cmd=/home/xxa/Desktop/Arch_Labs/Lab2/cs251a-microbench-master/merge

**** REAL SIMULATION ****
warn: The `get_runtime_isa` function is deprecated. Please migrate away from using this function.
warn: The `get_runtime_isa` function is deprecated. Please migrate away from using this function.
warn: No dot file generated. Please install pydot to generate the dot file and pdf.
build/X86/sim/simulate.cc:192: info: Entering event queue @ 0.  Starting simulation...
build/X86/arch/x86/cpuid.cc:180: warn: x86 cpuid family 0x0000: unimplemented function 13
build/X86/sim/mem_state.cc:443: info: Increasing stack size by one page.
build/X86/sim/syscall_emul.cc:74: warn: ignoring syscall mprotect(...)
Exiting @ tick 1806446000 because exiting with last active thread context




Global frequency set at 1000000000000 ticks per second
build/X86/mem/dram_interface.cc:690: warn: DRAM device capacity (8192 Mbytes) does not match the address range assigned (512 Mbytes)
0: system.remote_gdb: listening for remote gdb on port 7001
gem5 Simulator System.  https://www.gem5.org
gem5 is copyrighted software; use the --copyright option for details.

gem5 version 22.1.0.0
gem5 compiled Apr  8 2023 08:33:31
gem5 started Apr 10 2023 05:10:13
gem5 executing on ubuntu, pid 31241
command line: build/X86/gem5.opt configs/example/se1.py --cpu-type=DerivO3CPU --mem-type=DDR3_1600_8x8 --caches --l1d_size=64kB --l1i_size=64kB --l2cache --l2_size=2MB --cpu-clock=1GHz --cmd=/home/xxa/Desktop/Arch_Labs/Lab2/cs251a-microbench-master/merge

**** REAL SIMULATION ****
warn: The `get_runtime_isa` function is deprecated. Please migrate away from using this function.
warn: The `get_runtime_isa` function is deprecated. Please migrate away from using this function.
warn: No dot file generated. Please install pydot to generate the dot file and pdf.
build/X86/sim/simulate.cc:192: info: Entering event queue @ 0.  Starting simulation...
build/X86/arch/x86/cpuid.cc:180: warn: x86 cpuid family 0x0000: unimplemented function 13
build/X86/sim/mem_state.cc:443: info: Increasing stack size by one page.
build/X86/sim/syscall_emul.cc:74: warn: ignoring syscall mprotect(...)
Exiting @ tick 1806446000 because exiting with last active thread context




Global frequency set at 1000000000000 ticks per second
build/X86/mem/dram_interface.cc:690: warn: DRAM device capacity (8192 Mbytes) does not match the address range assigned (512 Mbytes)
0: system.remote_gdb: listening for remote gdb on port 7001
gem5 Simulator System.  https://www.gem5.org
gem5 is copyrighted software; use the --copyright option for details.

gem5 version 22.1.0.0
gem5 compiled Apr  8 2023 08:33:31
gem5 started Apr 10 2023 05:10:29
gem5 executing on ubuntu, pid 31283
command line: build/X86/gem5.opt configs/example/se1.py --cpu-type=DerivO3CPU --mem-type=DDR3_1600_8x8 --caches --l1d_size=64kB --l1i_size=64kB --l2cache --l2_size=16MB --cpu-clock=1GHz --cmd=/home/xxa/Desktop/Arch_Labs/Lab2/cs251a-microbench-master/merge

**** REAL SIMULATION ****
warn: The `get_runtime_isa` function is deprecated. Please migrate away from using this function.
warn: The `get_runtime_isa` function is deprecated. Please migrate away from using this function.
warn: No dot file generated. Please install pydot to generate the dot file and pdf.
build/X86/sim/simulate.cc:192: info: Entering event queue @ 0.  Starting simulation...
build/X86/arch/x86/cpuid.cc:180: warn: x86 cpuid family 0x0000: unimplemented function 13
build/X86/sim/mem_state.cc:443: info: Increasing stack size by one page.
build/X86/sim/syscall_emul.cc:74: warn: ignoring syscall mprotect(...)
Exiting @ tick 1806446000 because exiting with last active thread context








Global frequency set at 1000000000000 ticks per second
build/X86/mem/dram_interface.cc:690: warn: DRAM device capacity (8192 Mbytes) does not match the address range assigned (512 Mbytes)
0: system.remote_gdb: listening for remote gdb on port 7001
gem5 Simulator System.  https://www.gem5.org
gem5 is copyrighted software; use the --copyright option for details.

gem5 version 22.1.0.0
gem5 compiled Apr  8 2023 08:33:31
gem5 started Apr 10 2023 05:10:43
gem5 executing on ubuntu, pid 31318
command line: build/X86/gem5.opt configs/example/se1.py --cpu-type=DerivO3CPU --mem-type=DDR3_1600_8x8 --caches --l1d_size=64kB --l1i_size=64kB --cpu-clock=1GHz --cmd=/home/xxa/Desktop/Arch_Labs/Lab2/cs251a-microbench-master/mm

**** REAL SIMULATION ****
warn: The `get_runtime_isa` function is deprecated. Please migrate away from using this function.
warn: The `get_runtime_isa` function is deprecated. Please migrate away from using this function.
warn: No dot file generated. Please install pydot to generate the dot file and pdf.
build/X86/sim/simulate.cc:192: info: Entering event queue @ 0.  Starting simulation...
build/X86/arch/x86/cpuid.cc:180: warn: x86 cpuid family 0x0000: unimplemented function 13
build/X86/sim/mem_state.cc:443: info: Increasing stack size by one page.
build/X86/sim/syscall_emul.cc:74: warn: ignoring syscall mprotect(...)
Exiting @ tick 3554061000 because exiting with last active thread context




Global frequency set at 1000000000000 ticks per second
build/X86/mem/dram_interface.cc:690: warn: DRAM device capacity (8192 Mbytes) does not match the address range assigned (512 Mbytes)
build/X86/base/statistics.hh:280: warn: One of the stats is a legacy stat. Legacy stat is a stat that does not belong to any statistics::Group. Legacy stat is deprecated.
build/X86/base/statistics.hh:280: warn: One of the stats is a legacy stat. Legacy stat is a stat that does not belong to any statistics::Group. Legacy stat is deprecated.
0: system.remote_gdb: listening for remote gdb on port 7001
gem5 Simulator System.  https://www.gem5.org
gem5 is copyrighted software; use the --copyright option for details.

gem5 version 22.1.0.0
gem5 compiled Apr  8 2023 08:33:31
gem5 started Apr 10 2023 05:11:10
gem5 executing on ubuntu, pid 31354
command line: build/X86/gem5.opt configs/example/se.py --cpu-type=X86MinorCPU --mem-type=DDR3_1600_8x8 --caches --l1d_size=64kB --l1i_size=64kB --cpu-clock=1GHz --cmd=/home/xxa/Desktop/Arch_Labs/Lab2/cs251a-microbench-master/mm

**** REAL SIMULATION ****
warn: The `get_runtime_isa` function is deprecated. Please migrate away from using this function.
warn: The `get_runtime_isa` function is deprecated. Please migrate away from using this function.
warn: No dot file generated. Please install pydot to generate the dot file and pdf.
build/X86/sim/simulate.cc:192: info: Entering event queue @ 0.  Starting simulation...
build/X86/sim/mem_state.cc:443: info: Increasing stack size by one page.
build/X86/sim/syscall_emul.cc:74: warn: ignoring syscall mprotect(...)
Exiting @ tick 20402614000 because exiting with last active thread context




Global frequency set at 1000000000000 ticks per second
build/X86/mem/dram_interface.cc:690: warn: DRAM device capacity (8192 Mbytes) does not match the address range assigned (512 Mbytes)
0: system.remote_gdb: listening for remote gdb on port 7001
gem5 Simulator System.  https://www.gem5.org
gem5 is copyrighted software; use the --copyright option for details.

gem5 version 22.1.0.0
gem5 compiled Apr  8 2023 08:33:31
gem5 started Apr 10 2023 05:11:45
gem5 executing on ubuntu, pid 31395
command line: build/X86/gem5.opt configs/example/se2.py --cpu-type=DerivO3CPU --mem-type=DDR3_1600_8x8 --caches --l1d_size=64kB --l1i_size=64kB --cpu-clock=1GHz --cmd=/home/xxa/Desktop/Arch_Labs/Lab2/cs251a-microbench-master/mm

**** REAL SIMULATION ****
warn: The `get_runtime_isa` function is deprecated. Please migrate away from using this function.
warn: The `get_runtime_isa` function is deprecated. Please migrate away from using this function.
warn: No dot file generated. Please install pydot to generate the dot file and pdf.
build/X86/sim/simulate.cc:192: info: Entering event queue @ 0.  Starting simulation...
build/X86/arch/x86/cpuid.cc:180: warn: x86 cpuid family 0x0000: unimplemented function 13
build/X86/sim/mem_state.cc:443: info: Increasing stack size by one page.
build/X86/sim/syscall_emul.cc:74: warn: ignoring syscall mprotect(...)
Exiting @ tick 7385364000 because exiting with last active thread context




Global frequency set at 1000000000000 ticks per second
build/X86/mem/dram_interface.cc:690: warn: DRAM device capacity (8192 Mbytes) does not match the address range assigned (512 Mbytes)
0: system.remote_gdb: listening for remote gdb on port 7001
gem5 Simulator System.  https://www.gem5.org
gem5 is copyrighted software; use the --copyright option for details.

gem5 version 22.1.0.0
gem5 compiled Apr  8 2023 08:33:31
gem5 started Apr 10 2023 05:12:18
gem5 executing on ubuntu, pid 31440
command line: build/X86/gem5.opt configs/example/se1.py --cpu-type=DerivO3CPU --mem-type=DDR3_1600_8x8 --caches --l1d_size=64kB --l1i_size=64kB --cpu-clock=4GHz --cmd=/home/xxa/Desktop/Arch_Labs/Lab2/cs251a-microbench-master/mm

**** REAL SIMULATION ****
warn: The `get_runtime_isa` function is deprecated. Please migrate away from using this function.
warn: The `get_runtime_isa` function is deprecated. Please migrate away from using this function.
warn: No dot file generated. Please install pydot to generate the dot file and pdf.
build/X86/sim/simulate.cc:192: info: Entering event queue @ 0.  Starting simulation...
build/X86/arch/x86/cpuid.cc:180: warn: x86 cpuid family 0x0000: unimplemented function 13
build/X86/sim/mem_state.cc:443: info: Increasing stack size by one page.
build/X86/sim/syscall_emul.cc:74: warn: ignoring syscall mprotect(...)
Exiting @ tick 1482066000 because exiting with last active thread context




Global frequency set at 1000000000000 ticks per second
build/X86/mem/dram_interface.cc:690: warn: DRAM device capacity (8192 Mbytes) does not match the address range assigned (512 Mbytes)
0: system.remote_gdb: listening for remote gdb on port 7001
gem5 Simulator System.  https://www.gem5.org
gem5 is copyrighted software; use the --copyright option for details.

gem5 version 22.1.0.0
gem5 compiled Apr  8 2023 08:33:31
gem5 started Apr 10 2023 05:12:44
gem5 executing on ubuntu, pid 31483
command line: build/X86/gem5.opt configs/example/se1.py --cpu-type=DerivO3CPU --mem-type=DDR3_1600_8x8 --caches --l1d_size=64kB --l1i_size=64kB --l2cache --l2_size=256kB --cpu-clock=1GHz --cmd=/home/xxa/Desktop/Arch_Labs/Lab2/cs251a-microbench-master/mm

**** REAL SIMULATION ****
warn: The `get_runtime_isa` function is deprecated. Please migrate away from using this function.
warn: The `get_runtime_isa` function is deprecated. Please migrate away from using this function.
warn: No dot file generated. Please install pydot to generate the dot file and pdf.
build/X86/sim/simulate.cc:192: info: Entering event queue @ 0.  Starting simulation...
build/X86/arch/x86/cpuid.cc:180: warn: x86 cpuid family 0x0000: unimplemented function 13
build/X86/sim/mem_state.cc:443: info: Increasing stack size by one page.
build/X86/sim/syscall_emul.cc:74: warn: ignoring syscall mprotect(...)
Exiting @ tick 3390600000 because exiting with last active thread context




Global frequency set at 1000000000000 ticks per second
build/X86/mem/dram_interface.cc:690: warn: DRAM device capacity (8192 Mbytes) does not match the address range assigned (512 Mbytes)
0: system.remote_gdb: listening for remote gdb on port 7001
gem5 Simulator System.  https://www.gem5.org
gem5 is copyrighted software; use the --copyright option for details.

gem5 version 22.1.0.0
gem5 compiled Apr  8 2023 08:33:31
gem5 started Apr 10 2023 05:13:09
gem5 executing on ubuntu, pid 31520
command line: build/X86/gem5.opt configs/example/se1.py --cpu-type=DerivO3CPU --mem-type=DDR3_1600_8x8 --caches --l1d_size=64kB --l1i_size=64kB --l2cache --l2_size=2MB --cpu-clock=1GHz --cmd=/home/xxa/Desktop/Arch_Labs/Lab2/cs251a-microbench-master/mm

**** REAL SIMULATION ****
warn: The `get_runtime_isa` function is deprecated. Please migrate away from using this function.
warn: The `get_runtime_isa` function is deprecated. Please migrate away from using this function.
warn: No dot file generated. Please install pydot to generate the dot file and pdf.
build/X86/sim/simulate.cc:192: info: Entering event queue @ 0.  Starting simulation...
build/X86/arch/x86/cpuid.cc:180: warn: x86 cpuid family 0x0000: unimplemented function 13
build/X86/sim/mem_state.cc:443: info: Increasing stack size by one page.
build/X86/sim/syscall_emul.cc:74: warn: ignoring syscall mprotect(...)
Exiting @ tick 3390600000 because exiting with last active thread context




Global frequency set at 1000000000000 ticks per second
build/X86/mem/dram_interface.cc:690: warn: DRAM device capacity (8192 Mbytes) does not match the address range assigned (512 Mbytes)
0: system.remote_gdb: listening for remote gdb on port 7001
gem5 Simulator System.  https://www.gem5.org
gem5 is copyrighted software; use the --copyright option for details.

gem5 version 22.1.0.0
gem5 compiled Apr  8 2023 08:33:31
gem5 started Apr 10 2023 05:13:34
gem5 executing on ubuntu, pid 31557
command line: build/X86/gem5.opt configs/example/se1.py --cpu-type=DerivO3CPU --mem-type=DDR3_1600_8x8 --caches --l1d_size=64kB --l1i_size=64kB --l2cache --l2_size=16MB --cpu-clock=1GHz --cmd=/home/xxa/Desktop/Arch_Labs/Lab2/cs251a-microbench-master/mm

**** REAL SIMULATION ****
warn: The `get_runtime_isa` function is deprecated. Please migrate away from using this function.
warn: The `get_runtime_isa` function is deprecated. Please migrate away from using this function.
warn: No dot file generated. Please install pydot to generate the dot file and pdf.
build/X86/sim/simulate.cc:192: info: Entering event queue @ 0.  Starting simulation...
build/X86/arch/x86/cpuid.cc:180: warn: x86 cpuid family 0x0000: unimplemented function 13
build/X86/sim/mem_state.cc:443: info: Increasing stack size by one page.
build/X86/sim/syscall_emul.cc:74: warn: ignoring syscall mprotect(...)
Exiting @ tick 3390600000 because exiting with last active thread context








Global frequency set at 1000000000000 ticks per second
build/X86/mem/dram_interface.cc:690: warn: DRAM device capacity (8192 Mbytes) does not match the address range assigned (512 Mbytes)
0: system.remote_gdb: listening for remote gdb on port 7001
gem5 Simulator System.  https://www.gem5.org
gem5 is copyrighted software; use the --copyright option for details.

gem5 version 22.1.0.0
gem5 compiled Apr  8 2023 08:33:31
gem5 started Apr 10 2023 05:13:59
gem5 executing on ubuntu, pid 31594
command line: build/X86/gem5.opt configs/example/se1.py --cpu-type=DerivO3CPU --mem-type=DDR3_1600_8x8 --caches --l1d_size=64kB --l1i_size=64kB --cpu-clock=1GHz --cmd=/home/xxa/Desktop/Arch_Labs/Lab2/cs251a-microbench-master/sieve

**** REAL SIMULATION ****
warn: The `get_runtime_isa` function is deprecated. Please migrate away from using this function.
warn: The `get_runtime_isa` function is deprecated. Please migrate away from using this function.
warn: No dot file generated. Please install pydot to generate the dot file and pdf.
build/X86/sim/simulate.cc:192: info: Entering event queue @ 0.  Starting simulation...
build/X86/arch/x86/cpuid.cc:180: warn: x86 cpuid family 0x0000: unimplemented function 13
build/X86/sim/mem_state.cc:443: info: Increasing stack size by one page.
build/X86/sim/syscall_emul.cc:74: warn: ignoring syscall mprotect(...)
Exiting @ tick 53447056000 because exiting with last active thread context




Global frequency set at 1000000000000 ticks per second
build/X86/mem/dram_interface.cc:690: warn: DRAM device capacity (8192 Mbytes) does not match the address range assigned (512 Mbytes)
build/X86/base/statistics.hh:280: warn: One of the stats is a legacy stat. Legacy stat is a stat that does not belong to any statistics::Group. Legacy stat is deprecated.
build/X86/base/statistics.hh:280: warn: One of the stats is a legacy stat. Legacy stat is a stat that does not belong to any statistics::Group. Legacy stat is deprecated.
0: system.remote_gdb: listening for remote gdb on port 7001
gem5 Simulator System.  https://www.gem5.org
gem5 is copyrighted software; use the --copyright option for details.

gem5 version 22.1.0.0
gem5 compiled Apr  8 2023 08:33:31
gem5 started Apr 10 2023 05:15:20
gem5 executing on ubuntu, pid 31637
command line: build/X86/gem5.opt configs/example/se.py --cpu-type=X86MinorCPU --mem-type=DDR3_1600_8x8 --caches --l1d_size=64kB --l1i_size=64kB --cpu-clock=1GHz --cmd=/home/xxa/Desktop/Arch_Labs/Lab2/cs251a-microbench-master/sieve

**** REAL SIMULATION ****
warn: The `get_runtime_isa` function is deprecated. Please migrate away from using this function.
warn: The `get_runtime_isa` function is deprecated. Please migrate away from using this function.
warn: No dot file generated. Please install pydot to generate the dot file and pdf.
build/X86/sim/simulate.cc:192: info: Entering event queue @ 0.  Starting simulation...
build/X86/sim/mem_state.cc:443: info: Increasing stack size by one page.
build/X86/sim/syscall_emul.cc:74: warn: ignoring syscall mprotect(...)
Exiting @ tick 55776837000 because exiting with last active thread context




Global frequency set at 1000000000000 ticks per second
build/X86/mem/dram_interface.cc:690: warn: DRAM device capacity (8192 Mbytes) does not match the address range assigned (512 Mbytes)
0: system.remote_gdb: listening for remote gdb on port 7001
gem5 Simulator System.  https://www.gem5.org
gem5 is copyrighted software; use the --copyright option for details.

gem5 version 22.1.0.0
gem5 compiled Apr  8 2023 08:33:31
gem5 started Apr 10 2023 05:16:53
gem5 executing on ubuntu, pid 31686
command line: build/X86/gem5.opt configs/example/se2.py --cpu-type=DerivO3CPU --mem-type=DDR3_1600_8x8 --caches --l1d_size=64kB --l1i_size=64kB --cpu-clock=1GHz --cmd=/home/xxa/Desktop/Arch_Labs/Lab2/cs251a-microbench-master/sieve

**** REAL SIMULATION ****
warn: The `get_runtime_isa` function is deprecated. Please migrate away from using this function.
warn: The `get_runtime_isa` function is deprecated. Please migrate away from using this function.
warn: No dot file generated. Please install pydot to generate the dot file and pdf.
build/X86/sim/simulate.cc:192: info: Entering event queue @ 0.  Starting simulation...
build/X86/arch/x86/cpuid.cc:180: warn: x86 cpuid family 0x0000: unimplemented function 13
build/X86/sim/mem_state.cc:443: info: Increasing stack size by one page.
build/X86/sim/syscall_emul.cc:74: warn: ignoring syscall mprotect(...)
Exiting @ tick 54145548000 because exiting with last active thread context




Global frequency set at 1000000000000 ticks per second
build/X86/mem/dram_interface.cc:690: warn: DRAM device capacity (8192 Mbytes) does not match the address range assigned (512 Mbytes)
0: system.remote_gdb: listening for remote gdb on port 7001
gem5 Simulator System.  https://www.gem5.org
gem5 is copyrighted software; use the --copyright option for details.

gem5 version 22.1.0.0
gem5 compiled Apr  8 2023 08:33:31
gem5 started Apr 10 2023 05:18:18
gem5 executing on ubuntu, pid 31737
command line: build/X86/gem5.opt configs/example/se1.py --cpu-type=DerivO3CPU --mem-type=DDR3_1600_8x8 --caches --l1d_size=64kB --l1i_size=64kB --cpu-clock=4GHz --cmd=/home/xxa/Desktop/Arch_Labs/Lab2/cs251a-microbench-master/sieve

**** REAL SIMULATION ****
warn: The `get_runtime_isa` function is deprecated. Please migrate away from using this function.
warn: The `get_runtime_isa` function is deprecated. Please migrate away from using this function.
warn: No dot file generated. Please install pydot to generate the dot file and pdf.
build/X86/sim/simulate.cc:192: info: Entering event queue @ 0.  Starting simulation...
build/X86/arch/x86/cpuid.cc:180: warn: x86 cpuid family 0x0000: unimplemented function 13
build/X86/sim/mem_state.cc:443: info: Increasing stack size by one page.
build/X86/sim/syscall_emul.cc:74: warn: ignoring syscall mprotect(...)
Exiting @ tick 50489781500 because exiting with last active thread context




Global frequency set at 1000000000000 ticks per second
build/X86/mem/dram_interface.cc:690: warn: DRAM device capacity (8192 Mbytes) does not match the address range assigned (512 Mbytes)
0: system.remote_gdb: listening for remote gdb on port 7001
gem5 Simulator System.  https://www.gem5.org
gem5 is copyrighted software; use the --copyright option for details.

gem5 version 22.1.0.0
gem5 compiled Apr  8 2023 08:33:31
gem5 started Apr 10 2023 05:22:03
gem5 executing on ubuntu, pid 31817
command line: build/X86/gem5.opt configs/example/se1.py --cpu-type=DerivO3CPU --mem-type=DDR3_1600_8x8 --caches --l1d_size=64kB --l1i_size=64kB --l2cache --l2_size=256kB --cpu-clock=1GHz --cmd=/home/xxa/Desktop/Arch_Labs/Lab2/cs251a-microbench-master/sieve

**** REAL SIMULATION ****
warn: The `get_runtime_isa` function is deprecated. Please migrate away from using this function.
warn: The `get_runtime_isa` function is deprecated. Please migrate away from using this function.
warn: No dot file generated. Please install pydot to generate the dot file and pdf.
build/X86/sim/simulate.cc:192: info: Entering event queue @ 0.  Starting simulation...
build/X86/arch/x86/cpuid.cc:180: warn: x86 cpuid family 0x0000: unimplemented function 13
build/X86/sim/mem_state.cc:443: info: Increasing stack size by one page.
build/X86/sim/syscall_emul.cc:74: warn: ignoring syscall mprotect(...)
Exiting @ tick 81525023000 because exiting with last active thread context




Global frequency set at 1000000000000 ticks per second
build/X86/mem/dram_interface.cc:690: warn: DRAM device capacity (8192 Mbytes) does not match the address range assigned (512 Mbytes)
0: system.remote_gdb: listening for remote gdb on port 7001
gem5 Simulator System.  https://www.gem5.org
gem5 is copyrighted software; use the --copyright option for details.

gem5 version 22.1.0.0
gem5 compiled Apr  8 2023 08:33:31
gem5 started Apr 10 2023 05:24:01
gem5 executing on ubuntu, pid 31866
command line: build/X86/gem5.opt configs/example/se1.py --cpu-type=DerivO3CPU --mem-type=DDR3_1600_8x8 --caches --l1d_size=64kB --l1i_size=64kB --l2cache --l2_size=2MB --cpu-clock=1GHz --cmd=/home/xxa/Desktop/Arch_Labs/Lab2/cs251a-microbench-master/sieve

**** REAL SIMULATION ****
warn: The `get_runtime_isa` function is deprecated. Please migrate away from using this function.
warn: The `get_runtime_isa` function is deprecated. Please migrate away from using this function.
warn: No dot file generated. Please install pydot to generate the dot file and pdf.
build/X86/sim/simulate.cc:192: info: Entering event queue @ 0.  Starting simulation...
build/X86/arch/x86/cpuid.cc:180: warn: x86 cpuid family 0x0000: unimplemented function 13
build/X86/sim/mem_state.cc:443: info: Increasing stack size by one page.
build/X86/sim/syscall_emul.cc:74: warn: ignoring syscall mprotect(...)
Exiting @ tick 25131866000 because exiting with last active thread context




Global frequency set at 1000000000000 ticks per second
build/X86/mem/dram_interface.cc:690: warn: DRAM device capacity (8192 Mbytes) does not match the address range assigned (512 Mbytes)
0: system.remote_gdb: listening for remote gdb on port 7001
gem5 Simulator System.  https://www.gem5.org
gem5 is copyrighted software; use the --copyright option for details.

gem5 version 22.1.0.0
gem5 compiled Apr  8 2023 08:33:31
gem5 started Apr 10 2023 05:24:58
gem5 executing on ubuntu, pid 31916
command line: build/X86/gem5.opt configs/example/se1.py --cpu-type=DerivO3CPU --mem-type=DDR3_1600_8x8 --caches --l1d_size=64kB --l1i_size=64kB --l2cache --l2_size=16MB --cpu-clock=1GHz --cmd=/home/xxa/Desktop/Arch_Labs/Lab2/cs251a-microbench-master/sieve

**** REAL SIMULATION ****
warn: The `get_runtime_isa` function is deprecated. Please migrate away from using this function.
warn: The `get_runtime_isa` function is deprecated. Please migrate away from using this function.
warn: No dot file generated. Please install pydot to generate the dot file and pdf.
build/X86/sim/simulate.cc:192: info: Entering event queue @ 0.  Starting simulation...
build/X86/arch/x86/cpuid.cc:180: warn: x86 cpuid family 0x0000: unimplemented function 13
build/X86/sim/mem_state.cc:443: info: Increasing stack size by one page.
build/X86/sim/syscall_emul.cc:74: warn: ignoring syscall mprotect(...)
Exiting @ tick 25131866000 because exiting with last active thread context








Global frequency set at 1000000000000 ticks per second
build/X86/mem/dram_interface.cc:690: warn: DRAM device capacity (8192 Mbytes) does not match the address range assigned (512 Mbytes)
0: system.remote_gdb: listening for remote gdb on port 7001
gem5 Simulator System.  https://www.gem5.org
gem5 is copyrighted software; use the --copyright option for details.

gem5 version 22.1.0.0
gem5 compiled Apr  8 2023 08:33:31
gem5 started Apr 10 2023 05:26:00
gem5 executing on ubuntu, pid 31964
command line: build/X86/gem5.opt configs/example/se1.py --cpu-type=DerivO3CPU --mem-type=DDR3_1600_8x8 --caches --l1d_size=64kB --l1i_size=64kB --cpu-clock=1GHz --cmd=/home/xxa/Desktop/Arch_Labs/Lab2/cs251a-microbench-master/spmv

**** REAL SIMULATION ****
warn: The `get_runtime_isa` function is deprecated. Please migrate away from using this function.
warn: The `get_runtime_isa` function is deprecated. Please migrate away from using this function.
warn: No dot file generated. Please install pydot to generate the dot file and pdf.
build/X86/sim/simulate.cc:192: info: Entering event queue @ 0.  Starting simulation...
build/X86/arch/x86/cpuid.cc:180: warn: x86 cpuid family 0x0000: unimplemented function 13
build/X86/sim/mem_state.cc:443: info: Increasing stack size by one page.
build/X86/sim/syscall_emul.cc:74: warn: ignoring syscall mprotect(...)
build/X86/sim/mem_state.cc:443: info: Increasing stack size by one page.
build/X86/sim/mem_state.cc:443: info: Increasing stack size by one page.
build/X86/sim/mem_state.cc:443: info: Increasing stack size by one page.
build/X86/sim/mem_state.cc:443: info: Increasing stack size by one page.
build/X86/sim/mem_state.cc:443: info: Increasing stack size by one page.
build/X86/sim/mem_state.cc:443: info: Increasing stack size by one page.
build/X86/sim/mem_state.cc:443: info: Increasing stack size by one page.
Exiting @ tick 30593681000 because exiting with last active thread context




Global frequency set at 1000000000000 ticks per second
build/X86/mem/dram_interface.cc:690: warn: DRAM device capacity (8192 Mbytes) does not match the address range assigned (512 Mbytes)
build/X86/base/statistics.hh:280: warn: One of the stats is a legacy stat. Legacy stat is a stat that does not belong to any statistics::Group. Legacy stat is deprecated.
build/X86/base/statistics.hh:280: warn: One of the stats is a legacy stat. Legacy stat is a stat that does not belong to any statistics::Group. Legacy stat is deprecated.
0: system.remote_gdb: listening for remote gdb on port 7001
gem5 Simulator System.  https://www.gem5.org
gem5 is copyrighted software; use the --copyright option for details.

gem5 version 22.1.0.0
gem5 compiled Apr  8 2023 08:33:31
gem5 started Apr 10 2023 05:27:47
gem5 executing on ubuntu, pid 32011
command line: build/X86/gem5.opt configs/example/se.py --cpu-type=X86MinorCPU --mem-type=DDR3_1600_8x8 --caches --l1d_size=64kB --l1i_size=64kB --cpu-clock=1GHz --cmd=/home/xxa/Desktop/Arch_Labs/Lab2/cs251a-microbench-master/spmv

**** REAL SIMULATION ****
warn: The `get_runtime_isa` function is deprecated. Please migrate away from using this function.
warn: The `get_runtime_isa` function is deprecated. Please migrate away from using this function.
warn: No dot file generated. Please install pydot to generate the dot file and pdf.
build/X86/sim/simulate.cc:192: info: Entering event queue @ 0.  Starting simulation...
build/X86/sim/mem_state.cc:443: info: Increasing stack size by one page.
build/X86/sim/syscall_emul.cc:74: warn: ignoring syscall mprotect(...)
build/X86/sim/mem_state.cc:443: info: Increasing stack size by one page.
build/X86/sim/mem_state.cc:443: info: Increasing stack size by one page.
build/X86/sim/mem_state.cc:443: info: Increasing stack size by one page.
build/X86/sim/mem_state.cc:443: info: Increasing stack size by one page.
build/X86/sim/mem_state.cc:443: info: Increasing stack size by one page.
build/X86/sim/mem_state.cc:443: info: Increasing stack size by one page.
build/X86/sim/mem_state.cc:443: info: Increasing stack size by one page.
Exiting @ tick 122233832000 because exiting with last active thread context




Global frequency set at 1000000000000 ticks per second
build/X86/mem/dram_interface.cc:690: warn: DRAM device capacity (8192 Mbytes) does not match the address range assigned (512 Mbytes)
0: system.remote_gdb: listening for remote gdb on port 7001
gem5 Simulator System.  https://www.gem5.org
gem5 is copyrighted software; use the --copyright option for details.

gem5 version 22.1.0.0
gem5 compiled Apr  8 2023 08:33:31
gem5 started Apr 10 2023 05:29:32
gem5 executing on ubuntu, pid 32060
command line: build/X86/gem5.opt configs/example/se2.py --cpu-type=DerivO3CPU --mem-type=DDR3_1600_8x8 --caches --l1d_size=64kB --l1i_size=64kB --cpu-clock=1GHz --cmd=/home/xxa/Desktop/Arch_Labs/Lab2/cs251a-microbench-master/spmv

**** REAL SIMULATION ****
warn: The `get_runtime_isa` function is deprecated. Please migrate away from using this function.
warn: The `get_runtime_isa` function is deprecated. Please migrate away from using this function.
warn: No dot file generated. Please install pydot to generate the dot file and pdf.
build/X86/sim/simulate.cc:192: info: Entering event queue @ 0.  Starting simulation...
build/X86/arch/x86/cpuid.cc:180: warn: x86 cpuid family 0x0000: unimplemented function 13
build/X86/sim/mem_state.cc:443: info: Increasing stack size by one page.
build/X86/sim/syscall_emul.cc:74: warn: ignoring syscall mprotect(...)
build/X86/sim/mem_state.cc:443: info: Increasing stack size by one page.
build/X86/sim/mem_state.cc:443: info: Increasing stack size by one page.
build/X86/sim/mem_state.cc:443: info: Increasing stack size by one page.
build/X86/sim/mem_state.cc:443: info: Increasing stack size by one page.
build/X86/sim/mem_state.cc:443: info: Increasing stack size by one page.
build/X86/sim/mem_state.cc:443: info: Increasing stack size by one page.
build/X86/sim/mem_state.cc:443: info: Increasing stack size by one page.
Exiting @ tick 30255181000 because exiting with last active thread context




Global frequency set at 1000000000000 ticks per second
build/X86/mem/dram_interface.cc:690: warn: DRAM device capacity (8192 Mbytes) does not match the address range assigned (512 Mbytes)
0: system.remote_gdb: listening for remote gdb on port 7001
gem5 Simulator System.  https://www.gem5.org
gem5 is copyrighted software; use the --copyright option for details.

gem5 version 22.1.0.0
gem5 compiled Apr  8 2023 08:33:31
gem5 started Apr 10 2023 05:31:29
gem5 executing on ubuntu, pid 32155
command line: build/X86/gem5.opt configs/example/se1.py --cpu-type=DerivO3CPU --mem-type=DDR3_1600_8x8 --caches --l1d_size=64kB --l1i_size=64kB --cpu-clock=4GHz --cmd=/home/xxa/Desktop/Arch_Labs/Lab2/cs251a-microbench-master/spmv

**** REAL SIMULATION ****
warn: The `get_runtime_isa` function is deprecated. Please migrate away from using this function.
warn: The `get_runtime_isa` function is deprecated. Please migrate away from using this function.
warn: No dot file generated. Please install pydot to generate the dot file and pdf.
build/X86/sim/simulate.cc:192: info: Entering event queue @ 0.  Starting simulation...
build/X86/arch/x86/cpuid.cc:180: warn: x86 cpuid family 0x0000: unimplemented function 13
build/X86/sim/mem_state.cc:443: info: Increasing stack size by one page.
build/X86/sim/syscall_emul.cc:74: warn: ignoring syscall mprotect(...)
build/X86/sim/mem_state.cc:443: info: Increasing stack size by one page.
build/X86/sim/mem_state.cc:443: info: Increasing stack size by one page.
build/X86/sim/mem_state.cc:443: info: Increasing stack size by one page.
build/X86/sim/mem_state.cc:443: info: Increasing stack size by one page.
build/X86/sim/mem_state.cc:443: info: Increasing stack size by one page.
build/X86/sim/mem_state.cc:443: info: Increasing stack size by one page.
build/X86/sim/mem_state.cc:443: info: Increasing stack size by one page.
Exiting @ tick 30393596500 because exiting with last active thread context




Global frequency set at 1000000000000 ticks per second
build/X86/mem/dram_interface.cc:690: warn: DRAM device capacity (8192 Mbytes) does not match the address range assigned (512 Mbytes)
0: system.remote_gdb: listening for remote gdb on port 7001
gem5 Simulator System.  https://www.gem5.org
gem5 is copyrighted software; use the --copyright option for details.

gem5 version 22.1.0.0
gem5 compiled Apr  8 2023 08:33:31
gem5 started Apr 10 2023 05:35:19
gem5 executing on ubuntu, pid 32221
command line: build/X86/gem5.opt configs/example/se1.py --cpu-type=DerivO3CPU --mem-type=DDR3_1600_8x8 --caches --l1d_size=64kB --l1i_size=64kB --l2cache --l2_size=256kB --cpu-clock=1GHz --cmd=/home/xxa/Desktop/Arch_Labs/Lab2/cs251a-microbench-master/spmv

**** REAL SIMULATION ****
warn: The `get_runtime_isa` function is deprecated. Please migrate away from using this function.
warn: The `get_runtime_isa` function is deprecated. Please migrate away from using this function.
warn: No dot file generated. Please install pydot to generate the dot file and pdf.
build/X86/sim/simulate.cc:192: info: Entering event queue @ 0.  Starting simulation...
build/X86/arch/x86/cpuid.cc:180: warn: x86 cpuid family 0x0000: unimplemented function 13
build/X86/sim/mem_state.cc:443: info: Increasing stack size by one page.
build/X86/sim/syscall_emul.cc:74: warn: ignoring syscall mprotect(...)
build/X86/sim/mem_state.cc:443: info: Increasing stack size by one page.
build/X86/sim/mem_state.cc:443: info: Increasing stack size by one page.
build/X86/sim/mem_state.cc:443: info: Increasing stack size by one page.
build/X86/sim/mem_state.cc:443: info: Increasing stack size by one page.
build/X86/sim/mem_state.cc:443: info: Increasing stack size by one page.
build/X86/sim/mem_state.cc:443: info: Increasing stack size by one page.
build/X86/sim/mem_state.cc:443: info: Increasing stack size by one page.
Exiting @ tick 28372063000 because exiting with last active thread context




Global frequency set at 1000000000000 ticks per second
build/X86/mem/dram_interface.cc:690: warn: DRAM device capacity (8192 Mbytes) does not match the address range assigned (512 Mbytes)
0: system.remote_gdb: listening for remote gdb on port 7001
gem5 Simulator System.  https://www.gem5.org
gem5 is copyrighted software; use the --copyright option for details.

gem5 version 22.1.0.0
gem5 compiled Apr  8 2023 08:33:31
gem5 started Apr 10 2023 05:36:49
gem5 executing on ubuntu, pid 32274
command line: build/X86/gem5.opt configs/example/se1.py --cpu-type=DerivO3CPU --mem-type=DDR3_1600_8x8 --caches --l1d_size=64kB --l1i_size=64kB --l2cache --l2_size=2MB --cpu-clock=1GHz --cmd=/home/xxa/Desktop/Arch_Labs/Lab2/cs251a-microbench-master/spmv

**** REAL SIMULATION ****
warn: The `get_runtime_isa` function is deprecated. Please migrate away from using this function.
warn: The `get_runtime_isa` function is deprecated. Please migrate away from using this function.
warn: No dot file generated. Please install pydot to generate the dot file and pdf.
build/X86/sim/simulate.cc:192: info: Entering event queue @ 0.  Starting simulation...
build/X86/arch/x86/cpuid.cc:180: warn: x86 cpuid family 0x0000: unimplemented function 13
build/X86/sim/mem_state.cc:443: info: Increasing stack size by one page.
build/X86/sim/syscall_emul.cc:74: warn: ignoring syscall mprotect(...)
build/X86/sim/mem_state.cc:443: info: Increasing stack size by one page.
build/X86/sim/mem_state.cc:443: info: Increasing stack size by one page.
build/X86/sim/mem_state.cc:443: info: Increasing stack size by one page.
build/X86/sim/mem_state.cc:443: info: Increasing stack size by one page.
build/X86/sim/mem_state.cc:443: info: Increasing stack size by one page.
build/X86/sim/mem_state.cc:443: info: Increasing stack size by one page.
build/X86/sim/mem_state.cc:443: info: Increasing stack size by one page.
Exiting @ tick 19752948000 because exiting with last active thread context




Global frequency set at 1000000000000 ticks per second
build/X86/mem/dram_interface.cc:690: warn: DRAM device capacity (8192 Mbytes) does not match the address range assigned (512 Mbytes)
0: system.remote_gdb: listening for remote gdb on port 7001
gem5 Simulator System.  https://www.gem5.org
gem5 is copyrighted software; use the --copyright option for details.

gem5 version 22.1.0.0
gem5 compiled Apr  8 2023 08:33:31
gem5 started Apr 10 2023 05:38:15
gem5 executing on ubuntu, pid 32321
command line: build/X86/gem5.opt configs/example/se1.py --cpu-type=DerivO3CPU --mem-type=DDR3_1600_8x8 --caches --l1d_size=64kB --l1i_size=64kB --l2cache --l2_size=16MB --cpu-clock=1GHz --cmd=/home/xxa/Desktop/Arch_Labs/Lab2/cs251a-microbench-master/spmv

**** REAL SIMULATION ****
warn: The `get_runtime_isa` function is deprecated. Please migrate away from using this function.
warn: The `get_runtime_isa` function is deprecated. Please migrate away from using this function.
warn: No dot file generated. Please install pydot to generate the dot file and pdf.
build/X86/sim/simulate.cc:192: info: Entering event queue @ 0.  Starting simulation...
build/X86/arch/x86/cpuid.cc:180: warn: x86 cpuid family 0x0000: unimplemented function 13
build/X86/sim/mem_state.cc:443: info: Increasing stack size by one page.
build/X86/sim/syscall_emul.cc:74: warn: ignoring syscall mprotect(...)
build/X86/sim/mem_state.cc:443: info: Increasing stack size by one page.
build/X86/sim/mem_state.cc:443: info: Increasing stack size by one page.
build/X86/sim/mem_state.cc:443: info: Increasing stack size by one page.
build/X86/sim/mem_state.cc:443: info: Increasing stack size by one page.
build/X86/sim/mem_state.cc:443: info: Increasing stack size by one page.
build/X86/sim/mem_state.cc:443: info: Increasing stack size by one page.
build/X86/sim/mem_state.cc:443: info: Increasing stack size by one page.
Exiting @ tick 13604256000 because exiting with last active thread context








