
---------- Begin Simulation Statistics ----------
simSeconds                                   0.000633                       # Number of seconds simulated (Second)
simTicks                                    633003250                       # Number of ticks simulated (Tick)
finalTick                                   633003250                       # Number of ticks from beginning of simulation (restored from checkpoints and never reset) (Tick)
simFreq                                  1000000000000                       # The number of ticks per simulated second ((Tick/Second))
hostSeconds                                      4.85                       # Real time elapsed on the host (Second)
hostTickRate                                130387875                       # The number of ticks simulated per host second (ticks/s) ((Tick/Second))
hostMemory                                    2251144                       # Number of bytes of host memory used (Byte)
simInsts                                      1927430                       # Number of instructions simulated (Count)
simOps                                        2023789                       # Number of ops (including micro ops) simulated (Count)
hostInstRate                                   397010                       # Simulator instruction rate (inst/s) ((Count/Second))
hostOpRate                                     416858                       # Simulator op (including micro ops) rate (op/s) ((Count/Second))
system.clk_domain.clock                          1000                       # Clock period in ticks (Tick)
system.cpu_cluster.clk_domain.clock               250                       # Clock period in ticks (Tick)
system.cpu_cluster.cpus.numCycles             2532013                       # Number of cpu cycles simulated (Cycle)
system.cpu_cluster.cpus.numWorkItemsStarted            0                       # Number of work items this cpu started (Count)
system.cpu_cluster.cpus.numWorkItemsCompleted            0                       # Number of work items this cpu completed (Count)
system.cpu_cluster.cpus.numInsts              1927430                       # Number of instructions committed (Count)
system.cpu_cluster.cpus.numOps                2023789                       # Number of ops (including micro ops) committed (Count)
system.cpu_cluster.cpus.numDiscardedOps          1852                       # Number of ops (including micro ops) which were discarded before commit (Count)
system.cpu_cluster.cpus.numFetchSuspends            0                       # Number of times Execute suspended instruction fetching (Count)
system.cpu_cluster.cpus.cpi                  1.313673                       # CPI: cycles per instruction ((Cycle/Count))
system.cpu_cluster.cpus.ipc                  0.761224                       # IPC: instructions per cycle ((Count/Cycle))
system.cpu_cluster.cpus.committedInstType_0::No_OpClass            2      0.00%      0.00% # Class of committed instruction (Count)
system.cpu_cluster.cpus.committedInstType_0::IntAlu      1297273     64.10%     64.10% # Class of committed instruction (Count)
system.cpu_cluster.cpus.committedInstType_0::IntMult         1249      0.06%     64.16% # Class of committed instruction (Count)
system.cpu_cluster.cpus.committedInstType_0::IntDiv            2      0.00%     64.16% # Class of committed instruction (Count)
system.cpu_cluster.cpus.committedInstType_0::FloatAdd        60000      2.96%     67.13% # Class of committed instruction (Count)
system.cpu_cluster.cpus.committedInstType_0::FloatCmp        20000      0.99%     68.12% # Class of committed instruction (Count)
system.cpu_cluster.cpus.committedInstType_0::FloatCvt        40000      1.98%     70.09% # Class of committed instruction (Count)
system.cpu_cluster.cpus.committedInstType_0::FloatMult        40000      1.98%     72.07% # Class of committed instruction (Count)
system.cpu_cluster.cpus.committedInstType_0::FloatMultAcc            0      0.00%     72.07% # Class of committed instruction (Count)
system.cpu_cluster.cpus.committedInstType_0::FloatDiv            0      0.00%     72.07% # Class of committed instruction (Count)
system.cpu_cluster.cpus.committedInstType_0::FloatMisc        20001      0.99%     73.06% # Class of committed instruction (Count)
system.cpu_cluster.cpus.committedInstType_0::FloatSqrt            0      0.00%     73.06% # Class of committed instruction (Count)
system.cpu_cluster.cpus.committedInstType_0::SimdAdd           11      0.00%     73.06% # Class of committed instruction (Count)
system.cpu_cluster.cpus.committedInstType_0::SimdAddAcc            0      0.00%     73.06% # Class of committed instruction (Count)
system.cpu_cluster.cpus.committedInstType_0::SimdAlu            8      0.00%     73.06% # Class of committed instruction (Count)
system.cpu_cluster.cpus.committedInstType_0::SimdCmp            8      0.00%     73.06% # Class of committed instruction (Count)
system.cpu_cluster.cpus.committedInstType_0::SimdCvt            0      0.00%     73.06% # Class of committed instruction (Count)
system.cpu_cluster.cpus.committedInstType_0::SimdMisc        20007      0.99%     74.05% # Class of committed instruction (Count)
system.cpu_cluster.cpus.committedInstType_0::SimdMult            0      0.00%     74.05% # Class of committed instruction (Count)
system.cpu_cluster.cpus.committedInstType_0::SimdMultAcc            0      0.00%     74.05% # Class of committed instruction (Count)
system.cpu_cluster.cpus.committedInstType_0::SimdShift            0      0.00%     74.05% # Class of committed instruction (Count)
system.cpu_cluster.cpus.committedInstType_0::SimdShiftAcc            0      0.00%     74.05% # Class of committed instruction (Count)
system.cpu_cluster.cpus.committedInstType_0::SimdDiv            0      0.00%     74.05% # Class of committed instruction (Count)
system.cpu_cluster.cpus.committedInstType_0::SimdSqrt            0      0.00%     74.05% # Class of committed instruction (Count)
system.cpu_cluster.cpus.committedInstType_0::SimdFloatAdd            0      0.00%     74.05% # Class of committed instruction (Count)
system.cpu_cluster.cpus.committedInstType_0::SimdFloatAlu            0      0.00%     74.05% # Class of committed instruction (Count)
system.cpu_cluster.cpus.committedInstType_0::SimdFloatCmp            0      0.00%     74.05% # Class of committed instruction (Count)
system.cpu_cluster.cpus.committedInstType_0::SimdFloatCvt            0      0.00%     74.05% # Class of committed instruction (Count)
system.cpu_cluster.cpus.committedInstType_0::SimdFloatDiv            0      0.00%     74.05% # Class of committed instruction (Count)
system.cpu_cluster.cpus.committedInstType_0::SimdFloatMisc            0      0.00%     74.05% # Class of committed instruction (Count)
system.cpu_cluster.cpus.committedInstType_0::SimdFloatMult            0      0.00%     74.05% # Class of committed instruction (Count)
system.cpu_cluster.cpus.committedInstType_0::SimdFloatMultAcc            0      0.00%     74.05% # Class of committed instruction (Count)
system.cpu_cluster.cpus.committedInstType_0::SimdFloatSqrt            0      0.00%     74.05% # Class of committed instruction (Count)
system.cpu_cluster.cpus.committedInstType_0::SimdReduceAdd            0      0.00%     74.05% # Class of committed instruction (Count)
system.cpu_cluster.cpus.committedInstType_0::SimdReduceAlu            0      0.00%     74.05% # Class of committed instruction (Count)
system.cpu_cluster.cpus.committedInstType_0::SimdReduceCmp            0      0.00%     74.05% # Class of committed instruction (Count)
system.cpu_cluster.cpus.committedInstType_0::SimdFloatReduceAdd            0      0.00%     74.05% # Class of committed instruction (Count)
system.cpu_cluster.cpus.committedInstType_0::SimdFloatReduceCmp            0      0.00%     74.05% # Class of committed instruction (Count)
system.cpu_cluster.cpus.committedInstType_0::SimdAes            0      0.00%     74.05% # Class of committed instruction (Count)
system.cpu_cluster.cpus.committedInstType_0::SimdAesMix            0      0.00%     74.05% # Class of committed instruction (Count)
system.cpu_cluster.cpus.committedInstType_0::SimdSha1Hash            0      0.00%     74.05% # Class of committed instruction (Count)
system.cpu_cluster.cpus.committedInstType_0::SimdSha1Hash2            0      0.00%     74.05% # Class of committed instruction (Count)
system.cpu_cluster.cpus.committedInstType_0::SimdSha256Hash            0      0.00%     74.05% # Class of committed instruction (Count)
system.cpu_cluster.cpus.committedInstType_0::SimdSha256Hash2            0      0.00%     74.05% # Class of committed instruction (Count)
system.cpu_cluster.cpus.committedInstType_0::SimdShaSigma2            0      0.00%     74.05% # Class of committed instruction (Count)
system.cpu_cluster.cpus.committedInstType_0::SimdShaSigma3            0      0.00%     74.05% # Class of committed instruction (Count)
system.cpu_cluster.cpus.committedInstType_0::SimdPredAlu            0      0.00%     74.05% # Class of committed instruction (Count)
system.cpu_cluster.cpus.committedInstType_0::MemRead       342942     16.95%     90.99% # Class of committed instruction (Count)
system.cpu_cluster.cpus.committedInstType_0::MemWrite       182286      9.01%    100.00% # Class of committed instruction (Count)
system.cpu_cluster.cpus.committedInstType_0::FloatMemRead            0      0.00%    100.00% # Class of committed instruction (Count)
system.cpu_cluster.cpus.committedInstType_0::FloatMemWrite            0      0.00%    100.00% # Class of committed instruction (Count)
system.cpu_cluster.cpus.committedInstType_0::IprAccess            0      0.00%    100.00% # Class of committed instruction (Count)
system.cpu_cluster.cpus.committedInstType_0::InstPrefetch            0      0.00%    100.00% # Class of committed instruction (Count)
system.cpu_cluster.cpus.committedInstType_0::total      2023789                       # Class of committed instruction (Count)
system.cpu_cluster.cpus.branchPred.lookups       233750                       # Number of BP lookups (Count)
system.cpu_cluster.cpus.branchPred.condPredicted       112856                       # Number of conditional branches predicted (Count)
system.cpu_cluster.cpus.branchPred.condIncorrect          569                       # Number of conditional branches incorrect (Count)
system.cpu_cluster.cpus.branchPred.BTBLookups       112306                       # Number of BTB lookups (Count)
system.cpu_cluster.cpus.branchPred.BTBHits       111707                       # Number of BTB hits (Count)
system.cpu_cluster.cpus.branchPred.BTBHitRatio     0.994666                       # BTB Hit Ratio (Ratio)
system.cpu_cluster.cpus.branchPred.RASUsed        60233                       # Number of times the RAS was used to get a target. (Count)
system.cpu_cluster.cpus.branchPred.RASIncorrect           19                       # Number of incorrect RAS predictions. (Count)
system.cpu_cluster.cpus.branchPred.indirectLookups           32                       # Number of indirect predictor lookups. (Count)
system.cpu_cluster.cpus.branchPred.indirectHits            0                       # Number of indirect target hits. (Count)
system.cpu_cluster.cpus.branchPred.indirectMisses           32                       # Number of indirect misses. (Count)
system.cpu_cluster.cpus.branchPred.indirectMispredicted           11                       # Number of mispredicted indirect branches. (Count)
system.cpu_cluster.cpus.dcache.demandHits::cpu_cluster.cpus.data       519873                       # number of demand (read+write) hits (Count)
system.cpu_cluster.cpus.dcache.demandHits::total       519873                       # number of demand (read+write) hits (Count)
system.cpu_cluster.cpus.dcache.overallHits::cpu_cluster.cpus.data       519873                       # number of overall hits (Count)
system.cpu_cluster.cpus.dcache.overallHits::total       519873                       # number of overall hits (Count)
system.cpu_cluster.cpus.dcache.demandMisses::cpu_cluster.cpus.data         5338                       # number of demand (read+write) misses (Count)
system.cpu_cluster.cpus.dcache.demandMisses::total         5338                       # number of demand (read+write) misses (Count)
system.cpu_cluster.cpus.dcache.overallMisses::cpu_cluster.cpus.data         5338                       # number of overall misses (Count)
system.cpu_cluster.cpus.dcache.overallMisses::total         5338                       # number of overall misses (Count)
system.cpu_cluster.cpus.dcache.demandMissLatency::cpu_cluster.cpus.data    217603250                       # number of demand (read+write) miss ticks (Tick)
system.cpu_cluster.cpus.dcache.demandMissLatency::total    217603250                       # number of demand (read+write) miss ticks (Tick)
system.cpu_cluster.cpus.dcache.overallMissLatency::cpu_cluster.cpus.data    217603250                       # number of overall miss ticks (Tick)
system.cpu_cluster.cpus.dcache.overallMissLatency::total    217603250                       # number of overall miss ticks (Tick)
system.cpu_cluster.cpus.dcache.demandAccesses::cpu_cluster.cpus.data       525211                       # number of demand (read+write) accesses (Count)
system.cpu_cluster.cpus.dcache.demandAccesses::total       525211                       # number of demand (read+write) accesses (Count)
system.cpu_cluster.cpus.dcache.overallAccesses::cpu_cluster.cpus.data       525211                       # number of overall (read+write) accesses (Count)
system.cpu_cluster.cpus.dcache.overallAccesses::total       525211                       # number of overall (read+write) accesses (Count)
system.cpu_cluster.cpus.dcache.demandMissRate::cpu_cluster.cpus.data     0.010164                       # miss rate for demand accesses (Ratio)
system.cpu_cluster.cpus.dcache.demandMissRate::total     0.010164                       # miss rate for demand accesses (Ratio)
system.cpu_cluster.cpus.dcache.overallMissRate::cpu_cluster.cpus.data     0.010164                       # miss rate for overall accesses (Ratio)
system.cpu_cluster.cpus.dcache.overallMissRate::total     0.010164                       # miss rate for overall accesses (Ratio)
system.cpu_cluster.cpus.dcache.demandAvgMissLatency::cpu_cluster.cpus.data 40764.940052                       # average overall miss latency ((Cycle/Count))
system.cpu_cluster.cpus.dcache.demandAvgMissLatency::total 40764.940052                       # average overall miss latency ((Cycle/Count))
system.cpu_cluster.cpus.dcache.overallAvgMissLatency::cpu_cluster.cpus.data 40764.940052                       # average overall miss latency ((Cycle/Count))
system.cpu_cluster.cpus.dcache.overallAvgMissLatency::total 40764.940052                       # average overall miss latency ((Cycle/Count))
system.cpu_cluster.cpus.dcache.blockedCycles::no_mshrs            0                       # number of cycles access was blocked (Cycle)
system.cpu_cluster.cpus.dcache.blockedCycles::no_targets            0                       # number of cycles access was blocked (Cycle)
system.cpu_cluster.cpus.dcache.blockedCauses::no_mshrs            0                       # number of times access was blocked (Count)
system.cpu_cluster.cpus.dcache.blockedCauses::no_targets            0                       # number of times access was blocked (Count)
system.cpu_cluster.cpus.dcache.avgBlocked::no_mshrs          nan                       # average number of cycles each access was blocked ((Cycle/Count))
system.cpu_cluster.cpus.dcache.avgBlocked::no_targets          nan                       # average number of cycles each access was blocked ((Cycle/Count))
system.cpu_cluster.cpus.dcache.writebacks::writebacks         2162                       # number of writebacks (Count)
system.cpu_cluster.cpus.dcache.writebacks::total         2162                       # number of writebacks (Count)
system.cpu_cluster.cpus.dcache.demandMshrHits::cpu_cluster.cpus.data         2627                       # number of demand (read+write) MSHR hits (Count)
system.cpu_cluster.cpus.dcache.demandMshrHits::total         2627                       # number of demand (read+write) MSHR hits (Count)
system.cpu_cluster.cpus.dcache.overallMshrHits::cpu_cluster.cpus.data         2627                       # number of overall MSHR hits (Count)
system.cpu_cluster.cpus.dcache.overallMshrHits::total         2627                       # number of overall MSHR hits (Count)
system.cpu_cluster.cpus.dcache.demandMshrMisses::cpu_cluster.cpus.data         2711                       # number of demand (read+write) MSHR misses (Count)
system.cpu_cluster.cpus.dcache.demandMshrMisses::total         2711                       # number of demand (read+write) MSHR misses (Count)
system.cpu_cluster.cpus.dcache.overallMshrMisses::cpu_cluster.cpus.data         2711                       # number of overall MSHR misses (Count)
system.cpu_cluster.cpus.dcache.overallMshrMisses::total         2711                       # number of overall MSHR misses (Count)
system.cpu_cluster.cpus.dcache.demandMshrMissLatency::cpu_cluster.cpus.data    164888750                       # number of demand (read+write) MSHR miss ticks (Tick)
system.cpu_cluster.cpus.dcache.demandMshrMissLatency::total    164888750                       # number of demand (read+write) MSHR miss ticks (Tick)
system.cpu_cluster.cpus.dcache.overallMshrMissLatency::cpu_cluster.cpus.data    164888750                       # number of overall MSHR miss ticks (Tick)
system.cpu_cluster.cpus.dcache.overallMshrMissLatency::total    164888750                       # number of overall MSHR miss ticks (Tick)
system.cpu_cluster.cpus.dcache.demandMshrMissRate::cpu_cluster.cpus.data     0.005162                       # mshr miss ratio for demand accesses (Ratio)
system.cpu_cluster.cpus.dcache.demandMshrMissRate::total     0.005162                       # mshr miss ratio for demand accesses (Ratio)
system.cpu_cluster.cpus.dcache.overallMshrMissRate::cpu_cluster.cpus.data     0.005162                       # mshr miss ratio for overall accesses (Ratio)
system.cpu_cluster.cpus.dcache.overallMshrMissRate::total     0.005162                       # mshr miss ratio for overall accesses (Ratio)
system.cpu_cluster.cpus.dcache.demandAvgMshrMissLatency::cpu_cluster.cpus.data 60822.113611                       # average overall mshr miss latency ((Cycle/Count))
system.cpu_cluster.cpus.dcache.demandAvgMshrMissLatency::total 60822.113611                       # average overall mshr miss latency ((Cycle/Count))
system.cpu_cluster.cpus.dcache.overallAvgMshrMissLatency::cpu_cluster.cpus.data 60822.113611                       # average overall mshr miss latency ((Cycle/Count))
system.cpu_cluster.cpus.dcache.overallAvgMshrMissLatency::total 60822.113611                       # average overall mshr miss latency ((Cycle/Count))
system.cpu_cluster.cpus.dcache.replacements         2200                       # number of replacements (Count)
system.cpu_cluster.cpus.dcache.LoadLockedReq.hits::cpu_cluster.cpus.data           15                       # number of LoadLockedReq hits (Count)
system.cpu_cluster.cpus.dcache.LoadLockedReq.hits::total           15                       # number of LoadLockedReq hits (Count)
system.cpu_cluster.cpus.dcache.LoadLockedReq.misses::cpu_cluster.cpus.data            1                       # number of LoadLockedReq misses (Count)
system.cpu_cluster.cpus.dcache.LoadLockedReq.misses::total            1                       # number of LoadLockedReq misses (Count)
system.cpu_cluster.cpus.dcache.LoadLockedReq.missLatency::cpu_cluster.cpus.data        59000                       # number of LoadLockedReq miss ticks (Tick)
system.cpu_cluster.cpus.dcache.LoadLockedReq.missLatency::total        59000                       # number of LoadLockedReq miss ticks (Tick)
system.cpu_cluster.cpus.dcache.LoadLockedReq.accesses::cpu_cluster.cpus.data           16                       # number of LoadLockedReq accesses(hits+misses) (Count)
system.cpu_cluster.cpus.dcache.LoadLockedReq.accesses::total           16                       # number of LoadLockedReq accesses(hits+misses) (Count)
system.cpu_cluster.cpus.dcache.LoadLockedReq.missRate::cpu_cluster.cpus.data     0.062500                       # miss rate for LoadLockedReq accesses (Ratio)
system.cpu_cluster.cpus.dcache.LoadLockedReq.missRate::total     0.062500                       # miss rate for LoadLockedReq accesses (Ratio)
system.cpu_cluster.cpus.dcache.LoadLockedReq.avgMissLatency::cpu_cluster.cpus.data        59000                       # average LoadLockedReq miss latency ((Tick/Count))
system.cpu_cluster.cpus.dcache.LoadLockedReq.avgMissLatency::total        59000                       # average LoadLockedReq miss latency ((Tick/Count))
system.cpu_cluster.cpus.dcache.LoadLockedReq.mshrMisses::cpu_cluster.cpus.data            1                       # number of LoadLockedReq MSHR misses (Count)
system.cpu_cluster.cpus.dcache.LoadLockedReq.mshrMisses::total            1                       # number of LoadLockedReq MSHR misses (Count)
system.cpu_cluster.cpus.dcache.LoadLockedReq.mshrMissLatency::cpu_cluster.cpus.data        58750                       # number of LoadLockedReq MSHR miss ticks (Tick)
system.cpu_cluster.cpus.dcache.LoadLockedReq.mshrMissLatency::total        58750                       # number of LoadLockedReq MSHR miss ticks (Tick)
system.cpu_cluster.cpus.dcache.LoadLockedReq.mshrMissRate::cpu_cluster.cpus.data     0.062500                       # mshr miss rate for LoadLockedReq accesses (Ratio)
system.cpu_cluster.cpus.dcache.LoadLockedReq.mshrMissRate::total     0.062500                       # mshr miss rate for LoadLockedReq accesses (Ratio)
system.cpu_cluster.cpus.dcache.LoadLockedReq.avgMshrMissLatency::cpu_cluster.cpus.data        58750                       # average LoadLockedReq mshr miss latency ((Tick/Count))
system.cpu_cluster.cpus.dcache.LoadLockedReq.avgMshrMissLatency::total        58750                       # average LoadLockedReq mshr miss latency ((Tick/Count))
system.cpu_cluster.cpus.dcache.ReadReq.hits::cpu_cluster.cpus.data       342926                       # number of ReadReq hits (Count)
system.cpu_cluster.cpus.dcache.ReadReq.hits::total       342926                       # number of ReadReq hits (Count)
system.cpu_cluster.cpus.dcache.ReadReq.misses::cpu_cluster.cpus.data           58                       # number of ReadReq misses (Count)
system.cpu_cluster.cpus.dcache.ReadReq.misses::total           58                       # number of ReadReq misses (Count)
system.cpu_cluster.cpus.dcache.ReadReq.missLatency::cpu_cluster.cpus.data      3414250                       # number of ReadReq miss ticks (Tick)
system.cpu_cluster.cpus.dcache.ReadReq.missLatency::total      3414250                       # number of ReadReq miss ticks (Tick)
system.cpu_cluster.cpus.dcache.ReadReq.accesses::cpu_cluster.cpus.data       342984                       # number of ReadReq accesses(hits+misses) (Count)
system.cpu_cluster.cpus.dcache.ReadReq.accesses::total       342984                       # number of ReadReq accesses(hits+misses) (Count)
system.cpu_cluster.cpus.dcache.ReadReq.missRate::cpu_cluster.cpus.data     0.000169                       # miss rate for ReadReq accesses (Ratio)
system.cpu_cluster.cpus.dcache.ReadReq.missRate::total     0.000169                       # miss rate for ReadReq accesses (Ratio)
system.cpu_cluster.cpus.dcache.ReadReq.avgMissLatency::cpu_cluster.cpus.data 58866.379310                       # average ReadReq miss latency ((Tick/Count))
system.cpu_cluster.cpus.dcache.ReadReq.avgMissLatency::total 58866.379310                       # average ReadReq miss latency ((Tick/Count))
system.cpu_cluster.cpus.dcache.ReadReq.mshrHits::cpu_cluster.cpus.data            2                       # number of ReadReq MSHR hits (Count)
system.cpu_cluster.cpus.dcache.ReadReq.mshrHits::total            2                       # number of ReadReq MSHR hits (Count)
system.cpu_cluster.cpus.dcache.ReadReq.mshrMisses::cpu_cluster.cpus.data           56                       # number of ReadReq MSHR misses (Count)
system.cpu_cluster.cpus.dcache.ReadReq.mshrMisses::total           56                       # number of ReadReq MSHR misses (Count)
system.cpu_cluster.cpus.dcache.ReadReq.mshrMissLatency::cpu_cluster.cpus.data      3340500                       # number of ReadReq MSHR miss ticks (Tick)
system.cpu_cluster.cpus.dcache.ReadReq.mshrMissLatency::total      3340500                       # number of ReadReq MSHR miss ticks (Tick)
system.cpu_cluster.cpus.dcache.ReadReq.mshrMissRate::cpu_cluster.cpus.data     0.000163                       # mshr miss rate for ReadReq accesses (Ratio)
system.cpu_cluster.cpus.dcache.ReadReq.mshrMissRate::total     0.000163                       # mshr miss rate for ReadReq accesses (Ratio)
system.cpu_cluster.cpus.dcache.ReadReq.avgMshrMissLatency::cpu_cluster.cpus.data 59651.785714                       # average ReadReq mshr miss latency ((Tick/Count))
system.cpu_cluster.cpus.dcache.ReadReq.avgMshrMissLatency::total 59651.785714                       # average ReadReq mshr miss latency ((Tick/Count))
system.cpu_cluster.cpus.dcache.StoreCondReq.hits::cpu_cluster.cpus.data           16                       # number of StoreCondReq hits (Count)
system.cpu_cluster.cpus.dcache.StoreCondReq.hits::total           16                       # number of StoreCondReq hits (Count)
system.cpu_cluster.cpus.dcache.StoreCondReq.accesses::cpu_cluster.cpus.data           16                       # number of StoreCondReq accesses(hits+misses) (Count)
system.cpu_cluster.cpus.dcache.StoreCondReq.accesses::total           16                       # number of StoreCondReq accesses(hits+misses) (Count)
system.cpu_cluster.cpus.dcache.WriteReq.hits::cpu_cluster.cpus.data       176947                       # number of WriteReq hits (Count)
system.cpu_cluster.cpus.dcache.WriteReq.hits::total       176947                       # number of WriteReq hits (Count)
system.cpu_cluster.cpus.dcache.WriteReq.misses::cpu_cluster.cpus.data         5280                       # number of WriteReq misses (Count)
system.cpu_cluster.cpus.dcache.WriteReq.misses::total         5280                       # number of WriteReq misses (Count)
system.cpu_cluster.cpus.dcache.WriteReq.missLatency::cpu_cluster.cpus.data    214189000                       # number of WriteReq miss ticks (Tick)
system.cpu_cluster.cpus.dcache.WriteReq.missLatency::total    214189000                       # number of WriteReq miss ticks (Tick)
system.cpu_cluster.cpus.dcache.WriteReq.accesses::cpu_cluster.cpus.data       182227                       # number of WriteReq accesses(hits+misses) (Count)
system.cpu_cluster.cpus.dcache.WriteReq.accesses::total       182227                       # number of WriteReq accesses(hits+misses) (Count)
system.cpu_cluster.cpus.dcache.WriteReq.missRate::cpu_cluster.cpus.data     0.028975                       # miss rate for WriteReq accesses (Ratio)
system.cpu_cluster.cpus.dcache.WriteReq.missRate::total     0.028975                       # miss rate for WriteReq accesses (Ratio)
system.cpu_cluster.cpus.dcache.WriteReq.avgMissLatency::cpu_cluster.cpus.data 40566.098485                       # average WriteReq miss latency ((Tick/Count))
system.cpu_cluster.cpus.dcache.WriteReq.avgMissLatency::total 40566.098485                       # average WriteReq miss latency ((Tick/Count))
system.cpu_cluster.cpus.dcache.WriteReq.mshrHits::cpu_cluster.cpus.data         2625                       # number of WriteReq MSHR hits (Count)
system.cpu_cluster.cpus.dcache.WriteReq.mshrHits::total         2625                       # number of WriteReq MSHR hits (Count)
system.cpu_cluster.cpus.dcache.WriteReq.mshrMisses::cpu_cluster.cpus.data         2655                       # number of WriteReq MSHR misses (Count)
system.cpu_cluster.cpus.dcache.WriteReq.mshrMisses::total         2655                       # number of WriteReq MSHR misses (Count)
system.cpu_cluster.cpus.dcache.WriteReq.mshrMissLatency::cpu_cluster.cpus.data    161548250                       # number of WriteReq MSHR miss ticks (Tick)
system.cpu_cluster.cpus.dcache.WriteReq.mshrMissLatency::total    161548250                       # number of WriteReq MSHR miss ticks (Tick)
system.cpu_cluster.cpus.dcache.WriteReq.mshrMissRate::cpu_cluster.cpus.data     0.014570                       # mshr miss rate for WriteReq accesses (Ratio)
system.cpu_cluster.cpus.dcache.WriteReq.mshrMissRate::total     0.014570                       # mshr miss rate for WriteReq accesses (Ratio)
system.cpu_cluster.cpus.dcache.WriteReq.avgMshrMissLatency::cpu_cluster.cpus.data 60846.798493                       # average WriteReq mshr miss latency ((Tick/Count))
system.cpu_cluster.cpus.dcache.WriteReq.avgMshrMissLatency::total 60846.798493                       # average WriteReq mshr miss latency ((Tick/Count))
system.cpu_cluster.cpus.dcache.power_state.pwrStateResidencyTicks::UNDEFINED    633003250                       # Cumulative time (in ticks) in various power states (Tick)
system.cpu_cluster.cpus.dcache.prefetcher.demandMshrMisses         2711                       # demands not covered by prefetchs (Count)
system.cpu_cluster.cpus.dcache.prefetcher.pfIssued            0                       # number of hwpf issued (Count)
system.cpu_cluster.cpus.dcache.prefetcher.pfUseful            0                       # number of useful prefetch (Count)
system.cpu_cluster.cpus.dcache.prefetcher.pfUsefulButMiss            0                       # number of hit on prefetch but cache block is not in an usable state (Count)
system.cpu_cluster.cpus.dcache.prefetcher.accuracy          nan                       # accuracy of the prefetcher (Count)
system.cpu_cluster.cpus.dcache.prefetcher.coverage            0                       # coverage brought by this prefetcher (Count)
system.cpu_cluster.cpus.dcache.prefetcher.pfHitInCache            0                       # number of prefetches hitting in cache (Count)
system.cpu_cluster.cpus.dcache.prefetcher.pfHitInMSHR            0                       # number of prefetches hitting in a MSHR (Count)
system.cpu_cluster.cpus.dcache.prefetcher.pfHitInWB            0                       # number of prefetches hit in the Write Buffer (Count)
system.cpu_cluster.cpus.dcache.prefetcher.pfLate            0                       # number of late prefetches (hitting in cache, MSHR or WB) (Count)
system.cpu_cluster.cpus.dcache.prefetcher.pfIdentified            0                       # number of prefetch candidates identified (Count)
system.cpu_cluster.cpus.dcache.prefetcher.pfBufferHit            0                       # number of redundant prefetches already in prefetch queue (Count)
system.cpu_cluster.cpus.dcache.prefetcher.pfInCache            0                       # number of redundant prefetches already in cache/mshr dropped (Count)
system.cpu_cluster.cpus.dcache.prefetcher.pfRemovedDemand            0                       # number of prefetches dropped due to a demand for the same address (Count)
system.cpu_cluster.cpus.dcache.prefetcher.pfRemovedFull            0                       # number of prefetches dropped due to prefetch queue size (Count)
system.cpu_cluster.cpus.dcache.prefetcher.pfSpanPage            0                       # number of prefetches that crossed the page (Count)
system.cpu_cluster.cpus.dcache.prefetcher.power_state.pwrStateResidencyTicks::UNDEFINED    633003250                       # Cumulative time (in ticks) in various power states (Tick)
system.cpu_cluster.cpus.dcache.tags.tagsInUse   471.684980                       # Average ticks per tags in use ((Tick/Count))
system.cpu_cluster.cpus.dcache.tags.totalRefs        15481                       # Total number of references to valid blocks. (Count)
system.cpu_cluster.cpus.dcache.tags.sampledRefs         2200                       # Sample count of references to valid blocks. (Count)
system.cpu_cluster.cpus.dcache.tags.avgRefs     7.036818                       # Average number of references to valid blocks. ((Count/Count))
system.cpu_cluster.cpus.dcache.tags.warmupTick       153500                       # The tick when the warmup percentage was hit. (Tick)
system.cpu_cluster.cpus.dcache.tags.occupancies::cpu_cluster.cpus.data   471.684980                       # Average occupied blocks per tick, per requestor ((Count/Tick))
system.cpu_cluster.cpus.dcache.tags.avgOccs::cpu_cluster.cpus.data     0.921260                       # Average percentage of cache occupancy ((Ratio/Tick))
system.cpu_cluster.cpus.dcache.tags.avgOccs::total     0.921260                       # Average percentage of cache occupancy ((Ratio/Tick))
system.cpu_cluster.cpus.dcache.tags.occupanciesTaskId::1024          512                       # Occupied blocks per task id (Count)
system.cpu_cluster.cpus.dcache.tags.ageTaskId_1024::0           43                       # Occupied blocks per task id, per block age (Count)
system.cpu_cluster.cpus.dcache.tags.ageTaskId_1024::1          350                       # Occupied blocks per task id, per block age (Count)
system.cpu_cluster.cpus.dcache.tags.ageTaskId_1024::2          119                       # Occupied blocks per task id, per block age (Count)
system.cpu_cluster.cpus.dcache.tags.ratioOccsTaskId::1024            1                       # Ratio of occupied blocks and all blocks, per task id (Ratio)
system.cpu_cluster.cpus.dcache.tags.tagAccesses      2103684                       # Number of tag accesses (Count)
system.cpu_cluster.cpus.dcache.tags.dataAccesses      2103684                       # Number of data accesses (Count)
system.cpu_cluster.cpus.dcache.tags.power_state.pwrStateResidencyTicks::UNDEFINED    633003250                       # Cumulative time (in ticks) in various power states (Tick)
system.cpu_cluster.cpus.fetch2.intInstructions      1116957                       # Number of integer instructions successfully decoded (Count)
system.cpu_cluster.cpus.fetch2.fpInstructions            0                       # Number of floating point instructions successfully decoded (Count)
system.cpu_cluster.cpus.fetch2.vecInstructions       200273                       # Number of SIMD instructions successfully decoded (Count)
system.cpu_cluster.cpus.fetch2.loadInstructions       324376                       # Number of memory load instructions successfully decoded (Count)
system.cpu_cluster.cpus.fetch2.storeInstructions       126911                       # Number of memory store instructions successfully decoded (Count)
system.cpu_cluster.cpus.fetch2.amoInstructions            0                       # Number of memory atomic instructions successfully decoded (Count)
system.cpu_cluster.cpus.icache.demandHits::cpu_cluster.cpus.inst       571985                       # number of demand (read+write) hits (Count)
system.cpu_cluster.cpus.icache.demandHits::total       571985                       # number of demand (read+write) hits (Count)
system.cpu_cluster.cpus.icache.overallHits::cpu_cluster.cpus.inst       571985                       # number of overall hits (Count)
system.cpu_cluster.cpus.icache.overallHits::total       571985                       # number of overall hits (Count)
system.cpu_cluster.cpus.icache.demandMisses::cpu_cluster.cpus.inst          316                       # number of demand (read+write) misses (Count)
system.cpu_cluster.cpus.icache.demandMisses::total          316                       # number of demand (read+write) misses (Count)
system.cpu_cluster.cpus.icache.overallMisses::cpu_cluster.cpus.inst          316                       # number of overall misses (Count)
system.cpu_cluster.cpus.icache.overallMisses::total          316                       # number of overall misses (Count)
system.cpu_cluster.cpus.icache.demandMissLatency::cpu_cluster.cpus.inst     18280000                       # number of demand (read+write) miss ticks (Tick)
system.cpu_cluster.cpus.icache.demandMissLatency::total     18280000                       # number of demand (read+write) miss ticks (Tick)
system.cpu_cluster.cpus.icache.overallMissLatency::cpu_cluster.cpus.inst     18280000                       # number of overall miss ticks (Tick)
system.cpu_cluster.cpus.icache.overallMissLatency::total     18280000                       # number of overall miss ticks (Tick)
system.cpu_cluster.cpus.icache.demandAccesses::cpu_cluster.cpus.inst       572301                       # number of demand (read+write) accesses (Count)
system.cpu_cluster.cpus.icache.demandAccesses::total       572301                       # number of demand (read+write) accesses (Count)
system.cpu_cluster.cpus.icache.overallAccesses::cpu_cluster.cpus.inst       572301                       # number of overall (read+write) accesses (Count)
system.cpu_cluster.cpus.icache.overallAccesses::total       572301                       # number of overall (read+write) accesses (Count)
system.cpu_cluster.cpus.icache.demandMissRate::cpu_cluster.cpus.inst     0.000552                       # miss rate for demand accesses (Ratio)
system.cpu_cluster.cpus.icache.demandMissRate::total     0.000552                       # miss rate for demand accesses (Ratio)
system.cpu_cluster.cpus.icache.overallMissRate::cpu_cluster.cpus.inst     0.000552                       # miss rate for overall accesses (Ratio)
system.cpu_cluster.cpus.icache.overallMissRate::total     0.000552                       # miss rate for overall accesses (Ratio)
system.cpu_cluster.cpus.icache.demandAvgMissLatency::cpu_cluster.cpus.inst 57848.101266                       # average overall miss latency ((Cycle/Count))
system.cpu_cluster.cpus.icache.demandAvgMissLatency::total 57848.101266                       # average overall miss latency ((Cycle/Count))
system.cpu_cluster.cpus.icache.overallAvgMissLatency::cpu_cluster.cpus.inst 57848.101266                       # average overall miss latency ((Cycle/Count))
system.cpu_cluster.cpus.icache.overallAvgMissLatency::total 57848.101266                       # average overall miss latency ((Cycle/Count))
system.cpu_cluster.cpus.icache.blockedCycles::no_mshrs            0                       # number of cycles access was blocked (Cycle)
system.cpu_cluster.cpus.icache.blockedCycles::no_targets            0                       # number of cycles access was blocked (Cycle)
system.cpu_cluster.cpus.icache.blockedCauses::no_mshrs            0                       # number of times access was blocked (Count)
system.cpu_cluster.cpus.icache.blockedCauses::no_targets            0                       # number of times access was blocked (Count)
system.cpu_cluster.cpus.icache.avgBlocked::no_mshrs          nan                       # average number of cycles each access was blocked ((Cycle/Count))
system.cpu_cluster.cpus.icache.avgBlocked::no_targets          nan                       # average number of cycles each access was blocked ((Cycle/Count))
system.cpu_cluster.cpus.icache.demandMshrMisses::cpu_cluster.cpus.inst          316                       # number of demand (read+write) MSHR misses (Count)
system.cpu_cluster.cpus.icache.demandMshrMisses::total          316                       # number of demand (read+write) MSHR misses (Count)
system.cpu_cluster.cpus.icache.overallMshrMisses::cpu_cluster.cpus.inst          316                       # number of overall MSHR misses (Count)
system.cpu_cluster.cpus.icache.overallMshrMisses::total          316                       # number of overall MSHR misses (Count)
system.cpu_cluster.cpus.icache.demandMshrMissLatency::cpu_cluster.cpus.inst     18201250                       # number of demand (read+write) MSHR miss ticks (Tick)
system.cpu_cluster.cpus.icache.demandMshrMissLatency::total     18201250                       # number of demand (read+write) MSHR miss ticks (Tick)
system.cpu_cluster.cpus.icache.overallMshrMissLatency::cpu_cluster.cpus.inst     18201250                       # number of overall MSHR miss ticks (Tick)
system.cpu_cluster.cpus.icache.overallMshrMissLatency::total     18201250                       # number of overall MSHR miss ticks (Tick)
system.cpu_cluster.cpus.icache.demandMshrMissRate::cpu_cluster.cpus.inst     0.000552                       # mshr miss ratio for demand accesses (Ratio)
system.cpu_cluster.cpus.icache.demandMshrMissRate::total     0.000552                       # mshr miss ratio for demand accesses (Ratio)
system.cpu_cluster.cpus.icache.overallMshrMissRate::cpu_cluster.cpus.inst     0.000552                       # mshr miss ratio for overall accesses (Ratio)
system.cpu_cluster.cpus.icache.overallMshrMissRate::total     0.000552                       # mshr miss ratio for overall accesses (Ratio)
system.cpu_cluster.cpus.icache.demandAvgMshrMissLatency::cpu_cluster.cpus.inst 57598.892405                       # average overall mshr miss latency ((Cycle/Count))
system.cpu_cluster.cpus.icache.demandAvgMshrMissLatency::total 57598.892405                       # average overall mshr miss latency ((Cycle/Count))
system.cpu_cluster.cpus.icache.overallAvgMshrMissLatency::cpu_cluster.cpus.inst 57598.892405                       # average overall mshr miss latency ((Cycle/Count))
system.cpu_cluster.cpus.icache.overallAvgMshrMissLatency::total 57598.892405                       # average overall mshr miss latency ((Cycle/Count))
system.cpu_cluster.cpus.icache.replacements           44                       # number of replacements (Count)
system.cpu_cluster.cpus.icache.ReadReq.hits::cpu_cluster.cpus.inst       571985                       # number of ReadReq hits (Count)
system.cpu_cluster.cpus.icache.ReadReq.hits::total       571985                       # number of ReadReq hits (Count)
system.cpu_cluster.cpus.icache.ReadReq.misses::cpu_cluster.cpus.inst          316                       # number of ReadReq misses (Count)
system.cpu_cluster.cpus.icache.ReadReq.misses::total          316                       # number of ReadReq misses (Count)
system.cpu_cluster.cpus.icache.ReadReq.missLatency::cpu_cluster.cpus.inst     18280000                       # number of ReadReq miss ticks (Tick)
system.cpu_cluster.cpus.icache.ReadReq.missLatency::total     18280000                       # number of ReadReq miss ticks (Tick)
system.cpu_cluster.cpus.icache.ReadReq.accesses::cpu_cluster.cpus.inst       572301                       # number of ReadReq accesses(hits+misses) (Count)
system.cpu_cluster.cpus.icache.ReadReq.accesses::total       572301                       # number of ReadReq accesses(hits+misses) (Count)
system.cpu_cluster.cpus.icache.ReadReq.missRate::cpu_cluster.cpus.inst     0.000552                       # miss rate for ReadReq accesses (Ratio)
system.cpu_cluster.cpus.icache.ReadReq.missRate::total     0.000552                       # miss rate for ReadReq accesses (Ratio)
system.cpu_cluster.cpus.icache.ReadReq.avgMissLatency::cpu_cluster.cpus.inst 57848.101266                       # average ReadReq miss latency ((Tick/Count))
system.cpu_cluster.cpus.icache.ReadReq.avgMissLatency::total 57848.101266                       # average ReadReq miss latency ((Tick/Count))
system.cpu_cluster.cpus.icache.ReadReq.mshrMisses::cpu_cluster.cpus.inst          316                       # number of ReadReq MSHR misses (Count)
system.cpu_cluster.cpus.icache.ReadReq.mshrMisses::total          316                       # number of ReadReq MSHR misses (Count)
system.cpu_cluster.cpus.icache.ReadReq.mshrMissLatency::cpu_cluster.cpus.inst     18201250                       # number of ReadReq MSHR miss ticks (Tick)
system.cpu_cluster.cpus.icache.ReadReq.mshrMissLatency::total     18201250                       # number of ReadReq MSHR miss ticks (Tick)
system.cpu_cluster.cpus.icache.ReadReq.mshrMissRate::cpu_cluster.cpus.inst     0.000552                       # mshr miss rate for ReadReq accesses (Ratio)
system.cpu_cluster.cpus.icache.ReadReq.mshrMissRate::total     0.000552                       # mshr miss rate for ReadReq accesses (Ratio)
system.cpu_cluster.cpus.icache.ReadReq.avgMshrMissLatency::cpu_cluster.cpus.inst 57598.892405                       # average ReadReq mshr miss latency ((Tick/Count))
system.cpu_cluster.cpus.icache.ReadReq.avgMshrMissLatency::total 57598.892405                       # average ReadReq mshr miss latency ((Tick/Count))
system.cpu_cluster.cpus.icache.power_state.pwrStateResidencyTicks::UNDEFINED    633003250                       # Cumulative time (in ticks) in various power states (Tick)
system.cpu_cluster.cpus.icache.tags.tagsInUse   266.284835                       # Average ticks per tags in use ((Tick/Count))
system.cpu_cluster.cpus.icache.tags.totalRefs          280                       # Total number of references to valid blocks. (Count)
system.cpu_cluster.cpus.icache.tags.sampledRefs           44                       # Sample count of references to valid blocks. (Count)
system.cpu_cluster.cpus.icache.tags.avgRefs     6.363636                       # Average number of references to valid blocks. ((Count/Count))
system.cpu_cluster.cpus.icache.tags.warmupTick        78500                       # The tick when the warmup percentage was hit. (Tick)
system.cpu_cluster.cpus.icache.tags.occupancies::cpu_cluster.cpus.inst   266.284835                       # Average occupied blocks per tick, per requestor ((Count/Tick))
system.cpu_cluster.cpus.icache.tags.avgOccs::cpu_cluster.cpus.inst     0.520088                       # Average percentage of cache occupancy ((Ratio/Tick))
system.cpu_cluster.cpus.icache.tags.avgOccs::total     0.520088                       # Average percentage of cache occupancy ((Ratio/Tick))
system.cpu_cluster.cpus.icache.tags.occupanciesTaskId::1024          271                       # Occupied blocks per task id (Count)
system.cpu_cluster.cpus.icache.tags.ageTaskId_1024::2          271                       # Occupied blocks per task id, per block age (Count)
system.cpu_cluster.cpus.icache.tags.ratioOccsTaskId::1024     0.529297                       # Ratio of occupied blocks and all blocks, per task id (Ratio)
system.cpu_cluster.cpus.icache.tags.tagAccesses      1144917                       # Number of tag accesses (Count)
system.cpu_cluster.cpus.icache.tags.dataAccesses      1144917                       # Number of data accesses (Count)
system.cpu_cluster.cpus.icache.tags.power_state.pwrStateResidencyTicks::UNDEFINED    633003250                       # Cumulative time (in ticks) in various power states (Tick)
system.cpu_cluster.cpus.mmu.alignFaults             0                       # Number of MMU faults due to alignment restrictions (Count)
system.cpu_cluster.cpus.mmu.prefetchFaults            0                       # Number of MMU faults due to prefetch (Count)
system.cpu_cluster.cpus.mmu.domainFaults            0                       # Number of MMU faults due to domain restrictions (Count)
system.cpu_cluster.cpus.mmu.permsFaults             0                       # Number of MMU faults due to permissions restrictions (Count)
system.cpu_cluster.cpus.mmu.dtb.readHits            0                       # Read hits (Count)
system.cpu_cluster.cpus.mmu.dtb.readMisses            0                       # Read misses (Count)
system.cpu_cluster.cpus.mmu.dtb.writeHits            0                       # Write hits (Count)
system.cpu_cluster.cpus.mmu.dtb.writeMisses            0                       # Write misses (Count)
system.cpu_cluster.cpus.mmu.dtb.inserts             0                       # Number of times an entry is inserted into the TLB (Count)
system.cpu_cluster.cpus.mmu.dtb.flushTlb            0                       # Number of times complete TLB was flushed (Count)
system.cpu_cluster.cpus.mmu.dtb.flushTlbMva            0                       # Number of times TLB was flushed by MVA (Count)
system.cpu_cluster.cpus.mmu.dtb.flushTlbMvaAsid            0                       # Number of times TLB was flushed by MVA & ASID (Count)
system.cpu_cluster.cpus.mmu.dtb.flushTlbAsid            0                       # Number of times TLB was flushed by ASID (Count)
system.cpu_cluster.cpus.mmu.dtb.flushedEntries            0                       # Number of entries that have been flushed from TLB (Count)
system.cpu_cluster.cpus.mmu.dtb.readAccesses            0                       # Read accesses (Count)
system.cpu_cluster.cpus.mmu.dtb.writeAccesses            0                       # Write accesses (Count)
system.cpu_cluster.cpus.mmu.dtb.hits                0                       # Total TLB (inst and data) hits (Count)
system.cpu_cluster.cpus.mmu.dtb.misses              0                       # Total TLB (inst and data) misses (Count)
system.cpu_cluster.cpus.mmu.dtb.accesses            0                       # Total TLB (inst and data) accesses (Count)
system.cpu_cluster.cpus.mmu.dtb_walker.walks            0                       # Table walker walks requested (Count)
system.cpu_cluster.cpus.mmu.dtb_walker.requestOrigin_Requested::Data            0                       # Table walker requests started/completed, data/inst (Count)
system.cpu_cluster.cpus.mmu.dtb_walker.requestOrigin_Requested::Inst            0                       # Table walker requests started/completed, data/inst (Count)
system.cpu_cluster.cpus.mmu.dtb_walker.requestOrigin_Requested::total            0                       # Table walker requests started/completed, data/inst (Count)
system.cpu_cluster.cpus.mmu.dtb_walker.requestOrigin_Completed::Data            0                       # Table walker requests started/completed, data/inst (Count)
system.cpu_cluster.cpus.mmu.dtb_walker.requestOrigin_Completed::Inst            0                       # Table walker requests started/completed, data/inst (Count)
system.cpu_cluster.cpus.mmu.dtb_walker.requestOrigin_Completed::total            0                       # Table walker requests started/completed, data/inst (Count)
system.cpu_cluster.cpus.mmu.dtb_walker.requestOrigin::total            0                       # Table walker requests started/completed, data/inst (Count)
system.cpu_cluster.cpus.mmu.dtb_walker.power_state.pwrStateResidencyTicks::UNDEFINED    633003250                       # Cumulative time (in ticks) in various power states (Tick)
system.cpu_cluster.cpus.mmu.itb.instHits            0                       # Inst hits (Count)
system.cpu_cluster.cpus.mmu.itb.instMisses            0                       # Inst misses (Count)
system.cpu_cluster.cpus.mmu.itb.inserts             0                       # Number of times an entry is inserted into the TLB (Count)
system.cpu_cluster.cpus.mmu.itb.flushTlb            0                       # Number of times complete TLB was flushed (Count)
system.cpu_cluster.cpus.mmu.itb.flushTlbMva            0                       # Number of times TLB was flushed by MVA (Count)
system.cpu_cluster.cpus.mmu.itb.flushTlbMvaAsid            0                       # Number of times TLB was flushed by MVA & ASID (Count)
system.cpu_cluster.cpus.mmu.itb.flushTlbAsid            0                       # Number of times TLB was flushed by ASID (Count)
system.cpu_cluster.cpus.mmu.itb.flushedEntries            0                       # Number of entries that have been flushed from TLB (Count)
system.cpu_cluster.cpus.mmu.itb.instAccesses            0                       # Inst accesses (Count)
system.cpu_cluster.cpus.mmu.itb.hits                0                       # Total TLB (inst and data) hits (Count)
system.cpu_cluster.cpus.mmu.itb.misses              0                       # Total TLB (inst and data) misses (Count)
system.cpu_cluster.cpus.mmu.itb.accesses            0                       # Total TLB (inst and data) accesses (Count)
system.cpu_cluster.cpus.mmu.itb_walker.walks            0                       # Table walker walks requested (Count)
system.cpu_cluster.cpus.mmu.itb_walker.requestOrigin_Requested::Data            0                       # Table walker requests started/completed, data/inst (Count)
system.cpu_cluster.cpus.mmu.itb_walker.requestOrigin_Requested::Inst            0                       # Table walker requests started/completed, data/inst (Count)
system.cpu_cluster.cpus.mmu.itb_walker.requestOrigin_Requested::total            0                       # Table walker requests started/completed, data/inst (Count)
system.cpu_cluster.cpus.mmu.itb_walker.requestOrigin_Completed::Data            0                       # Table walker requests started/completed, data/inst (Count)
system.cpu_cluster.cpus.mmu.itb_walker.requestOrigin_Completed::Inst            0                       # Table walker requests started/completed, data/inst (Count)
system.cpu_cluster.cpus.mmu.itb_walker.requestOrigin_Completed::total            0                       # Table walker requests started/completed, data/inst (Count)
system.cpu_cluster.cpus.mmu.itb_walker.requestOrigin::total            0                       # Table walker requests started/completed, data/inst (Count)
system.cpu_cluster.cpus.mmu.itb_walker.power_state.pwrStateResidencyTicks::UNDEFINED    633003250                       # Cumulative time (in ticks) in various power states (Tick)
system.cpu_cluster.cpus.mmu.l2_shared.instHits            0                       # Inst hits (Count)
system.cpu_cluster.cpus.mmu.l2_shared.instMisses            0                       # Inst misses (Count)
system.cpu_cluster.cpus.mmu.l2_shared.inserts            0                       # Number of times an entry is inserted into the TLB (Count)
system.cpu_cluster.cpus.mmu.l2_shared.flushTlb            0                       # Number of times complete TLB was flushed (Count)
system.cpu_cluster.cpus.mmu.l2_shared.flushTlbMva            0                       # Number of times TLB was flushed by MVA (Count)
system.cpu_cluster.cpus.mmu.l2_shared.flushTlbMvaAsid            0                       # Number of times TLB was flushed by MVA & ASID (Count)
system.cpu_cluster.cpus.mmu.l2_shared.flushTlbAsid            0                       # Number of times TLB was flushed by ASID (Count)
system.cpu_cluster.cpus.mmu.l2_shared.flushedEntries            0                       # Number of entries that have been flushed from TLB (Count)
system.cpu_cluster.cpus.mmu.l2_shared.instAccesses            0                       # Inst accesses (Count)
system.cpu_cluster.cpus.mmu.l2_shared.hits            0                       # Total TLB (inst and data) hits (Count)
system.cpu_cluster.cpus.mmu.l2_shared.misses            0                       # Total TLB (inst and data) misses (Count)
system.cpu_cluster.cpus.mmu.l2_shared.accesses            0                       # Total TLB (inst and data) accesses (Count)
system.cpu_cluster.cpus.mmu.stage2_dtb.readHits            0                       # Read hits (Count)
system.cpu_cluster.cpus.mmu.stage2_dtb.readMisses            0                       # Read misses (Count)
system.cpu_cluster.cpus.mmu.stage2_dtb.writeHits            0                       # Write hits (Count)
system.cpu_cluster.cpus.mmu.stage2_dtb.writeMisses            0                       # Write misses (Count)
system.cpu_cluster.cpus.mmu.stage2_dtb.inserts            0                       # Number of times an entry is inserted into the TLB (Count)
system.cpu_cluster.cpus.mmu.stage2_dtb.flushTlb            0                       # Number of times complete TLB was flushed (Count)
system.cpu_cluster.cpus.mmu.stage2_dtb.flushTlbMva            0                       # Number of times TLB was flushed by MVA (Count)
system.cpu_cluster.cpus.mmu.stage2_dtb.flushTlbMvaAsid            0                       # Number of times TLB was flushed by MVA & ASID (Count)
system.cpu_cluster.cpus.mmu.stage2_dtb.flushTlbAsid            0                       # Number of times TLB was flushed by ASID (Count)
system.cpu_cluster.cpus.mmu.stage2_dtb.flushedEntries            0                       # Number of entries that have been flushed from TLB (Count)
system.cpu_cluster.cpus.mmu.stage2_dtb.readAccesses            0                       # Read accesses (Count)
system.cpu_cluster.cpus.mmu.stage2_dtb.writeAccesses            0                       # Write accesses (Count)
system.cpu_cluster.cpus.mmu.stage2_dtb.hits            0                       # Total TLB (inst and data) hits (Count)
system.cpu_cluster.cpus.mmu.stage2_dtb.misses            0                       # Total TLB (inst and data) misses (Count)
system.cpu_cluster.cpus.mmu.stage2_dtb.accesses            0                       # Total TLB (inst and data) accesses (Count)
system.cpu_cluster.cpus.mmu.stage2_dtb_walker.walks            0                       # Table walker walks requested (Count)
system.cpu_cluster.cpus.mmu.stage2_dtb_walker.requestOrigin_Requested::Data            0                       # Table walker requests started/completed, data/inst (Count)
system.cpu_cluster.cpus.mmu.stage2_dtb_walker.requestOrigin_Requested::Inst            0                       # Table walker requests started/completed, data/inst (Count)
system.cpu_cluster.cpus.mmu.stage2_dtb_walker.requestOrigin_Requested::total            0                       # Table walker requests started/completed, data/inst (Count)
system.cpu_cluster.cpus.mmu.stage2_dtb_walker.requestOrigin_Completed::Data            0                       # Table walker requests started/completed, data/inst (Count)
system.cpu_cluster.cpus.mmu.stage2_dtb_walker.requestOrigin_Completed::Inst            0                       # Table walker requests started/completed, data/inst (Count)
system.cpu_cluster.cpus.mmu.stage2_dtb_walker.requestOrigin_Completed::total            0                       # Table walker requests started/completed, data/inst (Count)
system.cpu_cluster.cpus.mmu.stage2_dtb_walker.requestOrigin::total            0                       # Table walker requests started/completed, data/inst (Count)
system.cpu_cluster.cpus.mmu.stage2_dtb_walker.power_state.pwrStateResidencyTicks::UNDEFINED    633003250                       # Cumulative time (in ticks) in various power states (Tick)
system.cpu_cluster.cpus.mmu.stage2_itb.instHits            0                       # Inst hits (Count)
system.cpu_cluster.cpus.mmu.stage2_itb.instMisses            0                       # Inst misses (Count)
system.cpu_cluster.cpus.mmu.stage2_itb.inserts            0                       # Number of times an entry is inserted into the TLB (Count)
system.cpu_cluster.cpus.mmu.stage2_itb.flushTlb            0                       # Number of times complete TLB was flushed (Count)
system.cpu_cluster.cpus.mmu.stage2_itb.flushTlbMva            0                       # Number of times TLB was flushed by MVA (Count)
system.cpu_cluster.cpus.mmu.stage2_itb.flushTlbMvaAsid            0                       # Number of times TLB was flushed by MVA & ASID (Count)
system.cpu_cluster.cpus.mmu.stage2_itb.flushTlbAsid            0                       # Number of times TLB was flushed by ASID (Count)
system.cpu_cluster.cpus.mmu.stage2_itb.flushedEntries            0                       # Number of entries that have been flushed from TLB (Count)
system.cpu_cluster.cpus.mmu.stage2_itb.instAccesses            0                       # Inst accesses (Count)
system.cpu_cluster.cpus.mmu.stage2_itb.hits            0                       # Total TLB (inst and data) hits (Count)
system.cpu_cluster.cpus.mmu.stage2_itb.misses            0                       # Total TLB (inst and data) misses (Count)
system.cpu_cluster.cpus.mmu.stage2_itb.accesses            0                       # Total TLB (inst and data) accesses (Count)
system.cpu_cluster.cpus.mmu.stage2_itb_walker.walks            0                       # Table walker walks requested (Count)
system.cpu_cluster.cpus.mmu.stage2_itb_walker.requestOrigin_Requested::Data            0                       # Table walker requests started/completed, data/inst (Count)
system.cpu_cluster.cpus.mmu.stage2_itb_walker.requestOrigin_Requested::Inst            0                       # Table walker requests started/completed, data/inst (Count)
system.cpu_cluster.cpus.mmu.stage2_itb_walker.requestOrigin_Requested::total            0                       # Table walker requests started/completed, data/inst (Count)
system.cpu_cluster.cpus.mmu.stage2_itb_walker.requestOrigin_Completed::Data            0                       # Table walker requests started/completed, data/inst (Count)
system.cpu_cluster.cpus.mmu.stage2_itb_walker.requestOrigin_Completed::Inst            0                       # Table walker requests started/completed, data/inst (Count)
system.cpu_cluster.cpus.mmu.stage2_itb_walker.requestOrigin_Completed::total            0                       # Table walker requests started/completed, data/inst (Count)
system.cpu_cluster.cpus.mmu.stage2_itb_walker.requestOrigin::total            0                       # Table walker requests started/completed, data/inst (Count)
system.cpu_cluster.cpus.mmu.stage2_itb_walker.power_state.pwrStateResidencyTicks::UNDEFINED    633003250                       # Cumulative time (in ticks) in various power states (Tick)
system.cpu_cluster.cpus.power_state.pwrStateResidencyTicks::ON    633003250                       # Cumulative time (in ticks) in various power states (Tick)
system.cpu_cluster.cpus.thread_0.numInsts      1927430                       # Number of Instructions committed (Count)
system.cpu_cluster.cpus.thread_0.numOps       2023789                       # Number of Ops committed (Count)
system.cpu_cluster.cpus.thread_0.numMemRefs            0                       # Number of Memory References (Count)
system.cpu_cluster.cpus.workload.numSyscalls            7                       # Number of system calls (Count)
system.cpu_cluster.l2.demandHits::cpu_cluster.cpus.inst           17                       # number of demand (read+write) hits (Count)
system.cpu_cluster.l2.demandHits::cpu_cluster.cpus.data            3                       # number of demand (read+write) hits (Count)
system.cpu_cluster.l2.demandHits::total            20                       # number of demand (read+write) hits (Count)
system.cpu_cluster.l2.overallHits::cpu_cluster.cpus.inst           17                       # number of overall hits (Count)
system.cpu_cluster.l2.overallHits::cpu_cluster.cpus.data            3                       # number of overall hits (Count)
system.cpu_cluster.l2.overallHits::total           20                       # number of overall hits (Count)
system.cpu_cluster.l2.demandMisses::cpu_cluster.cpus.inst          299                       # number of demand (read+write) misses (Count)
system.cpu_cluster.l2.demandMisses::cpu_cluster.cpus.data         2709                       # number of demand (read+write) misses (Count)
system.cpu_cluster.l2.demandMisses::total         3008                       # number of demand (read+write) misses (Count)
system.cpu_cluster.l2.overallMisses::cpu_cluster.cpus.inst          299                       # number of overall misses (Count)
system.cpu_cluster.l2.overallMisses::cpu_cluster.cpus.data         2709                       # number of overall misses (Count)
system.cpu_cluster.l2.overallMisses::total         3008                       # number of overall misses (Count)
system.cpu_cluster.l2.demandMissLatency::cpu_cluster.cpus.inst     17983250                       # number of demand (read+write) miss ticks (Tick)
system.cpu_cluster.l2.demandMissLatency::cpu_cluster.cpus.data    163579250                       # number of demand (read+write) miss ticks (Tick)
system.cpu_cluster.l2.demandMissLatency::total    181562500                       # number of demand (read+write) miss ticks (Tick)
system.cpu_cluster.l2.overallMissLatency::cpu_cluster.cpus.inst     17983250                       # number of overall miss ticks (Tick)
system.cpu_cluster.l2.overallMissLatency::cpu_cluster.cpus.data    163579250                       # number of overall miss ticks (Tick)
system.cpu_cluster.l2.overallMissLatency::total    181562500                       # number of overall miss ticks (Tick)
system.cpu_cluster.l2.demandAccesses::cpu_cluster.cpus.inst          316                       # number of demand (read+write) accesses (Count)
system.cpu_cluster.l2.demandAccesses::cpu_cluster.cpus.data         2712                       # number of demand (read+write) accesses (Count)
system.cpu_cluster.l2.demandAccesses::total         3028                       # number of demand (read+write) accesses (Count)
system.cpu_cluster.l2.overallAccesses::cpu_cluster.cpus.inst          316                       # number of overall (read+write) accesses (Count)
system.cpu_cluster.l2.overallAccesses::cpu_cluster.cpus.data         2712                       # number of overall (read+write) accesses (Count)
system.cpu_cluster.l2.overallAccesses::total         3028                       # number of overall (read+write) accesses (Count)
system.cpu_cluster.l2.demandMissRate::cpu_cluster.cpus.inst     0.946203                       # miss rate for demand accesses (Ratio)
system.cpu_cluster.l2.demandMissRate::cpu_cluster.cpus.data     0.998894                       # miss rate for demand accesses (Ratio)
system.cpu_cluster.l2.demandMissRate::total     0.993395                       # miss rate for demand accesses (Ratio)
system.cpu_cluster.l2.overallMissRate::cpu_cluster.cpus.inst     0.946203                       # miss rate for overall accesses (Ratio)
system.cpu_cluster.l2.overallMissRate::cpu_cluster.cpus.data     0.998894                       # miss rate for overall accesses (Ratio)
system.cpu_cluster.l2.overallMissRate::total     0.993395                       # miss rate for overall accesses (Ratio)
system.cpu_cluster.l2.demandAvgMissLatency::cpu_cluster.cpus.inst 60144.648829                       # average overall miss latency ((Cycle/Count))
system.cpu_cluster.l2.demandAvgMissLatency::cpu_cluster.cpus.data 60383.628645                       # average overall miss latency ((Cycle/Count))
system.cpu_cluster.l2.demandAvgMissLatency::total 60359.873670                       # average overall miss latency ((Cycle/Count))
system.cpu_cluster.l2.overallAvgMissLatency::cpu_cluster.cpus.inst 60144.648829                       # average overall miss latency ((Cycle/Count))
system.cpu_cluster.l2.overallAvgMissLatency::cpu_cluster.cpus.data 60383.628645                       # average overall miss latency ((Cycle/Count))
system.cpu_cluster.l2.overallAvgMissLatency::total 60359.873670                       # average overall miss latency ((Cycle/Count))
system.cpu_cluster.l2.blockedCycles::no_mshrs            0                       # number of cycles access was blocked (Cycle)
system.cpu_cluster.l2.blockedCycles::no_targets            0                       # number of cycles access was blocked (Cycle)
system.cpu_cluster.l2.blockedCauses::no_mshrs            0                       # number of times access was blocked (Count)
system.cpu_cluster.l2.blockedCauses::no_targets            0                       # number of times access was blocked (Count)
system.cpu_cluster.l2.avgBlocked::no_mshrs          nan                       # average number of cycles each access was blocked ((Cycle/Count))
system.cpu_cluster.l2.avgBlocked::no_targets          nan                       # average number of cycles each access was blocked ((Cycle/Count))
system.cpu_cluster.l2.demandMshrHits::cpu_cluster.cpus.inst            1                       # number of demand (read+write) MSHR hits (Count)
system.cpu_cluster.l2.demandMshrHits::cpu_cluster.cpus.data            2                       # number of demand (read+write) MSHR hits (Count)
system.cpu_cluster.l2.demandMshrHits::total            3                       # number of demand (read+write) MSHR hits (Count)
system.cpu_cluster.l2.overallMshrHits::cpu_cluster.cpus.inst            1                       # number of overall MSHR hits (Count)
system.cpu_cluster.l2.overallMshrHits::cpu_cluster.cpus.data            2                       # number of overall MSHR hits (Count)
system.cpu_cluster.l2.overallMshrHits::total            3                       # number of overall MSHR hits (Count)
system.cpu_cluster.l2.demandMshrMisses::cpu_cluster.cpus.inst          298                       # number of demand (read+write) MSHR misses (Count)
system.cpu_cluster.l2.demandMshrMisses::cpu_cluster.cpus.data         2707                       # number of demand (read+write) MSHR misses (Count)
system.cpu_cluster.l2.demandMshrMisses::total         3005                       # number of demand (read+write) MSHR misses (Count)
system.cpu_cluster.l2.overallMshrMisses::cpu_cluster.cpus.inst          298                       # number of overall MSHR misses (Count)
system.cpu_cluster.l2.overallMshrMisses::cpu_cluster.cpus.data         2707                       # number of overall MSHR misses (Count)
system.cpu_cluster.l2.overallMshrMisses::total         3005                       # number of overall MSHR misses (Count)
system.cpu_cluster.l2.demandMshrMissLatency::cpu_cluster.cpus.inst     17608250                       # number of demand (read+write) MSHR miss ticks (Tick)
system.cpu_cluster.l2.demandMshrMissLatency::cpu_cluster.cpus.data    160091750                       # number of demand (read+write) MSHR miss ticks (Tick)
system.cpu_cluster.l2.demandMshrMissLatency::total    177700000                       # number of demand (read+write) MSHR miss ticks (Tick)
system.cpu_cluster.l2.overallMshrMissLatency::cpu_cluster.cpus.inst     17608250                       # number of overall MSHR miss ticks (Tick)
system.cpu_cluster.l2.overallMshrMissLatency::cpu_cluster.cpus.data    160091750                       # number of overall MSHR miss ticks (Tick)
system.cpu_cluster.l2.overallMshrMissLatency::total    177700000                       # number of overall MSHR miss ticks (Tick)
system.cpu_cluster.l2.demandMshrMissRate::cpu_cluster.cpus.inst     0.943038                       # mshr miss ratio for demand accesses (Ratio)
system.cpu_cluster.l2.demandMshrMissRate::cpu_cluster.cpus.data     0.998156                       # mshr miss ratio for demand accesses (Ratio)
system.cpu_cluster.l2.demandMshrMissRate::total     0.992404                       # mshr miss ratio for demand accesses (Ratio)
system.cpu_cluster.l2.overallMshrMissRate::cpu_cluster.cpus.inst     0.943038                       # mshr miss ratio for overall accesses (Ratio)
system.cpu_cluster.l2.overallMshrMissRate::cpu_cluster.cpus.data     0.998156                       # mshr miss ratio for overall accesses (Ratio)
system.cpu_cluster.l2.overallMshrMissRate::total     0.992404                       # mshr miss ratio for overall accesses (Ratio)
system.cpu_cluster.l2.demandAvgMshrMissLatency::cpu_cluster.cpus.inst 59088.087248                       # average overall mshr miss latency ((Cycle/Count))
system.cpu_cluster.l2.demandAvgMshrMissLatency::cpu_cluster.cpus.data 59139.915035                       # average overall mshr miss latency ((Cycle/Count))
system.cpu_cluster.l2.demandAvgMshrMissLatency::total 59134.775374                       # average overall mshr miss latency ((Cycle/Count))
system.cpu_cluster.l2.overallAvgMshrMissLatency::cpu_cluster.cpus.inst 59088.087248                       # average overall mshr miss latency ((Cycle/Count))
system.cpu_cluster.l2.overallAvgMshrMissLatency::cpu_cluster.cpus.data 59139.915035                       # average overall mshr miss latency ((Cycle/Count))
system.cpu_cluster.l2.overallAvgMshrMissLatency::total 59134.775374                       # average overall mshr miss latency ((Cycle/Count))
system.cpu_cluster.l2.replacements                  0                       # number of replacements (Count)
system.cpu_cluster.l2.ReadExReq.hits::cpu_cluster.cpus.data            1                       # number of ReadExReq hits (Count)
system.cpu_cluster.l2.ReadExReq.hits::total            1                       # number of ReadExReq hits (Count)
system.cpu_cluster.l2.ReadExReq.misses::cpu_cluster.cpus.data         2654                       # number of ReadExReq misses (Count)
system.cpu_cluster.l2.ReadExReq.misses::total         2654                       # number of ReadExReq misses (Count)
system.cpu_cluster.l2.ReadExReq.missLatency::cpu_cluster.cpus.data    160217000                       # number of ReadExReq miss ticks (Tick)
system.cpu_cluster.l2.ReadExReq.missLatency::total    160217000                       # number of ReadExReq miss ticks (Tick)
system.cpu_cluster.l2.ReadExReq.accesses::cpu_cluster.cpus.data         2655                       # number of ReadExReq accesses(hits+misses) (Count)
system.cpu_cluster.l2.ReadExReq.accesses::total         2655                       # number of ReadExReq accesses(hits+misses) (Count)
system.cpu_cluster.l2.ReadExReq.missRate::cpu_cluster.cpus.data     0.999623                       # miss rate for ReadExReq accesses (Ratio)
system.cpu_cluster.l2.ReadExReq.missRate::total     0.999623                       # miss rate for ReadExReq accesses (Ratio)
system.cpu_cluster.l2.ReadExReq.avgMissLatency::cpu_cluster.cpus.data 60368.123587                       # average ReadExReq miss latency ((Tick/Count))
system.cpu_cluster.l2.ReadExReq.avgMissLatency::total 60368.123587                       # average ReadExReq miss latency ((Tick/Count))
system.cpu_cluster.l2.ReadExReq.mshrMisses::cpu_cluster.cpus.data         2654                       # number of ReadExReq MSHR misses (Count)
system.cpu_cluster.l2.ReadExReq.mshrMisses::total         2654                       # number of ReadExReq MSHR misses (Count)
system.cpu_cluster.l2.ReadExReq.mshrMissLatency::cpu_cluster.cpus.data    156899500                       # number of ReadExReq MSHR miss ticks (Tick)
system.cpu_cluster.l2.ReadExReq.mshrMissLatency::total    156899500                       # number of ReadExReq MSHR miss ticks (Tick)
system.cpu_cluster.l2.ReadExReq.mshrMissRate::cpu_cluster.cpus.data     0.999623                       # mshr miss rate for ReadExReq accesses (Ratio)
system.cpu_cluster.l2.ReadExReq.mshrMissRate::total     0.999623                       # mshr miss rate for ReadExReq accesses (Ratio)
system.cpu_cluster.l2.ReadExReq.avgMshrMissLatency::cpu_cluster.cpus.data 59118.123587                       # average ReadExReq mshr miss latency ((Tick/Count))
system.cpu_cluster.l2.ReadExReq.avgMshrMissLatency::total 59118.123587                       # average ReadExReq mshr miss latency ((Tick/Count))
system.cpu_cluster.l2.ReadSharedReq.hits::cpu_cluster.cpus.inst           17                       # number of ReadSharedReq hits (Count)
system.cpu_cluster.l2.ReadSharedReq.hits::cpu_cluster.cpus.data            2                       # number of ReadSharedReq hits (Count)
system.cpu_cluster.l2.ReadSharedReq.hits::total           19                       # number of ReadSharedReq hits (Count)
system.cpu_cluster.l2.ReadSharedReq.misses::cpu_cluster.cpus.inst          299                       # number of ReadSharedReq misses (Count)
system.cpu_cluster.l2.ReadSharedReq.misses::cpu_cluster.cpus.data           55                       # number of ReadSharedReq misses (Count)
system.cpu_cluster.l2.ReadSharedReq.misses::total          354                       # number of ReadSharedReq misses (Count)
system.cpu_cluster.l2.ReadSharedReq.missLatency::cpu_cluster.cpus.inst     17983250                       # number of ReadSharedReq miss ticks (Tick)
system.cpu_cluster.l2.ReadSharedReq.missLatency::cpu_cluster.cpus.data      3362250                       # number of ReadSharedReq miss ticks (Tick)
system.cpu_cluster.l2.ReadSharedReq.missLatency::total     21345500                       # number of ReadSharedReq miss ticks (Tick)
system.cpu_cluster.l2.ReadSharedReq.accesses::cpu_cluster.cpus.inst          316                       # number of ReadSharedReq accesses(hits+misses) (Count)
system.cpu_cluster.l2.ReadSharedReq.accesses::cpu_cluster.cpus.data           57                       # number of ReadSharedReq accesses(hits+misses) (Count)
system.cpu_cluster.l2.ReadSharedReq.accesses::total          373                       # number of ReadSharedReq accesses(hits+misses) (Count)
system.cpu_cluster.l2.ReadSharedReq.missRate::cpu_cluster.cpus.inst     0.946203                       # miss rate for ReadSharedReq accesses (Ratio)
system.cpu_cluster.l2.ReadSharedReq.missRate::cpu_cluster.cpus.data     0.964912                       # miss rate for ReadSharedReq accesses (Ratio)
system.cpu_cluster.l2.ReadSharedReq.missRate::total     0.949062                       # miss rate for ReadSharedReq accesses (Ratio)
system.cpu_cluster.l2.ReadSharedReq.avgMissLatency::cpu_cluster.cpus.inst 60144.648829                       # average ReadSharedReq miss latency ((Tick/Count))
system.cpu_cluster.l2.ReadSharedReq.avgMissLatency::cpu_cluster.cpus.data 61131.818182                       # average ReadSharedReq miss latency ((Tick/Count))
system.cpu_cluster.l2.ReadSharedReq.avgMissLatency::total 60298.022599                       # average ReadSharedReq miss latency ((Tick/Count))
system.cpu_cluster.l2.ReadSharedReq.mshrHits::cpu_cluster.cpus.inst            1                       # number of ReadSharedReq MSHR hits (Count)
system.cpu_cluster.l2.ReadSharedReq.mshrHits::cpu_cluster.cpus.data            2                       # number of ReadSharedReq MSHR hits (Count)
system.cpu_cluster.l2.ReadSharedReq.mshrHits::total            3                       # number of ReadSharedReq MSHR hits (Count)
system.cpu_cluster.l2.ReadSharedReq.mshrMisses::cpu_cluster.cpus.inst          298                       # number of ReadSharedReq MSHR misses (Count)
system.cpu_cluster.l2.ReadSharedReq.mshrMisses::cpu_cluster.cpus.data           53                       # number of ReadSharedReq MSHR misses (Count)
system.cpu_cluster.l2.ReadSharedReq.mshrMisses::total          351                       # number of ReadSharedReq MSHR misses (Count)
system.cpu_cluster.l2.ReadSharedReq.mshrMissLatency::cpu_cluster.cpus.inst     17608250                       # number of ReadSharedReq MSHR miss ticks (Tick)
system.cpu_cluster.l2.ReadSharedReq.mshrMissLatency::cpu_cluster.cpus.data      3192250                       # number of ReadSharedReq MSHR miss ticks (Tick)
system.cpu_cluster.l2.ReadSharedReq.mshrMissLatency::total     20800500                       # number of ReadSharedReq MSHR miss ticks (Tick)
system.cpu_cluster.l2.ReadSharedReq.mshrMissRate::cpu_cluster.cpus.inst     0.943038                       # mshr miss rate for ReadSharedReq accesses (Ratio)
system.cpu_cluster.l2.ReadSharedReq.mshrMissRate::cpu_cluster.cpus.data     0.929825                       # mshr miss rate for ReadSharedReq accesses (Ratio)
system.cpu_cluster.l2.ReadSharedReq.mshrMissRate::total     0.941019                       # mshr miss rate for ReadSharedReq accesses (Ratio)
system.cpu_cluster.l2.ReadSharedReq.avgMshrMissLatency::cpu_cluster.cpus.inst 59088.087248                       # average ReadSharedReq mshr miss latency ((Tick/Count))
system.cpu_cluster.l2.ReadSharedReq.avgMshrMissLatency::cpu_cluster.cpus.data 60231.132075                       # average ReadSharedReq mshr miss latency ((Tick/Count))
system.cpu_cluster.l2.ReadSharedReq.avgMshrMissLatency::total 59260.683761                       # average ReadSharedReq mshr miss latency ((Tick/Count))
system.cpu_cluster.l2.WritebackDirty.hits::writebacks         2162                       # number of WritebackDirty hits (Count)
system.cpu_cluster.l2.WritebackDirty.hits::total         2162                       # number of WritebackDirty hits (Count)
system.cpu_cluster.l2.WritebackDirty.accesses::writebacks         2162                       # number of WritebackDirty accesses(hits+misses) (Count)
[...]
system.mem_ctrls1.dram.bwRead::cpu_cluster.cpus.data     73850296                       # Total read bandwidth from this memory ((Byte/Second))
system.mem_ctrls1.dram.bwRead::cpu_cluster.cpus.dcache.prefetcher      4102794                       # Total read bandwidth from this memory ((Byte/Second))
system.mem_ctrls1.dram.bwRead::total        361045892                       # Total read bandwidth from this memory ((Byte/Second))
system.mem_ctrls1.dram.bwInstRead::cpu_cluster.cpus.inst    283092802                       # Instruction read bandwidth from this memory ((Byte/Second))
system.mem_ctrls1.dram.bwInstRead::total    283092802                       # Instruction read bandwidth from this memory ((Byte/Second))
system.mem_ctrls1.dram.bwTotal::cpu_cluster.cpus.inst    283092802                       # Total bandwidth to/from this memory ((Byte/Second))
system.mem_ctrls1.dram.bwTotal::cpu_cluster.cpus.data     73850296                       # Total bandwidth to/from this memory ((Byte/Second))
system.mem_ctrls1.dram.bwTotal::cpu_cluster.cpus.dcache.prefetcher      4102794                       # Total bandwidth to/from this memory ((Byte/Second))
system.mem_ctrls1.dram.bwTotal::total       361045892                       # Total bandwidth to/from this memory ((Byte/Second))
system.mem_ctrls1.dram.readBursts                 176                       # Number of DRAM read bursts (Count)
system.mem_ctrls1.dram.writeBursts                  0                       # Number of DRAM write bursts (Count)
system.mem_ctrls1.dram.perBankRdBursts::0            5                       # Per bank write bursts (Count)
system.mem_ctrls1.dram.perBankRdBursts::1            0                       # Per bank write bursts (Count)
system.mem_ctrls1.dram.perBankRdBursts::2            2                       # Per bank write bursts (Count)
system.mem_ctrls1.dram.perBankRdBursts::3           13                       # Per bank write bursts (Count)
system.mem_ctrls1.dram.perBankRdBursts::4           12                       # Per bank write bursts (Count)
system.mem_ctrls1.dram.perBankRdBursts::5           24                       # Per bank write bursts (Count)
system.mem_ctrls1.dram.perBankRdBursts::6           24                       # Per bank write bursts (Count)
system.mem_ctrls1.dram.perBankRdBursts::7           10                       # Per bank write bursts (Count)
system.mem_ctrls1.dram.perBankRdBursts::8            0                       # Per bank write bursts (Count)
system.mem_ctrls1.dram.perBankRdBursts::9            6                       # Per bank write bursts (Count)
system.mem_ctrls1.dram.perBankRdBursts::10            1                       # Per bank write bursts (Count)
system.mem_ctrls1.dram.perBankRdBursts::11            1                       # Per bank write bursts (Count)
system.mem_ctrls1.dram.perBankRdBursts::12            0                       # Per bank write bursts (Count)
system.mem_ctrls1.dram.perBankRdBursts::13           16                       # Per bank write bursts (Count)
system.mem_ctrls1.dram.perBankRdBursts::14           50                       # Per bank write bursts (Count)
system.mem_ctrls1.dram.perBankRdBursts::15           12                       # Per bank write bursts (Count)
system.mem_ctrls1.dram.perBankWrBursts::0            0                       # Per bank write bursts (Count)
system.mem_ctrls1.dram.perBankWrBursts::1            0                       # Per bank write bursts (Count)
system.mem_ctrls1.dram.perBankWrBursts::2            0                       # Per bank write bursts (Count)
system.mem_ctrls1.dram.perBankWrBursts::3            0                       # Per bank write bursts (Count)
system.mem_ctrls1.dram.perBankWrBursts::4            0                       # Per bank write bursts (Count)
system.mem_ctrls1.dram.perBankWrBursts::5            0                       # Per bank write bursts (Count)
system.mem_ctrls1.dram.perBankWrBursts::6            0                       # Per bank write bursts (Count)
system.mem_ctrls1.dram.perBankWrBursts::7            0                       # Per bank write bursts (Count)
system.mem_ctrls1.dram.perBankWrBursts::8            0                       # Per bank write bursts (Count)
system.mem_ctrls1.dram.perBankWrBursts::9            0                       # Per bank write bursts (Count)
system.mem_ctrls1.dram.perBankWrBursts::10            0                       # Per bank write bursts (Count)
system.mem_ctrls1.dram.perBankWrBursts::11            0                       # Per bank write bursts (Count)
system.mem_ctrls1.dram.perBankWrBursts::12            0                       # Per bank write bursts (Count)
system.mem_ctrls1.dram.perBankWrBursts::13            0                       # Per bank write bursts (Count)
system.mem_ctrls1.dram.perBankWrBursts::14            0                       # Per bank write bursts (Count)
system.mem_ctrls1.dram.perBankWrBursts::15            0                       # Per bank write bursts (Count)
system.mem_ctrls1.dram.totQLat                 517500                       # Total ticks spent queuing (Tick)
system.mem_ctrls1.dram.totBusLat               880000                       # Total ticks spent in databus transfers (Tick)
system.mem_ctrls1.dram.totMemAccLat           3817500                       # Total ticks spent from burst creation until serviced by the DRAM (Tick)
system.mem_ctrls1.dram.avgQLat                2940.34                       # Average queueing delay per DRAM burst ((Tick/Count))
system.mem_ctrls1.dram.avgBusLat              5000.00                       # Average bus latency per DRAM burst ((Tick/Count))
system.mem_ctrls1.dram.avgMemAccLat          21690.34                       # Average memory access latency per DRAM burst ((Tick/Count))
system.mem_ctrls1.dram.readRowHits                145                       # Number of row buffer hits during reads (Count)
system.mem_ctrls1.dram.writeRowHits                 0                       # Number of row buffer hits during writes (Count)
system.mem_ctrls1.dram.readRowHitRate           82.39                       # Row buffer hit rate for reads (Ratio)
system.mem_ctrls1.dram.writeRowHitRate            nan                       # Row buffer hit rate for writes (Ratio)
system.mem_ctrls1.dram.bytesPerActivate::samples           24                       # Bytes accessed per row activation (Byte)
system.mem_ctrls1.dram.bytesPerActivate::mean          376                       # Bytes accessed per row activation (Byte)
system.mem_ctrls1.dram.bytesPerActivate::gmean   254.117760                       # Bytes accessed per row activation (Byte)
system.mem_ctrls1.dram.bytesPerActivate::stdev   329.223593                       # Bytes accessed per row activation (Byte)
system.mem_ctrls1.dram.bytesPerActivate::0-127            3     12.50%     12.50% # Bytes accessed per row activation (Byte)
system.mem_ctrls1.dram.bytesPerActivate::128-255            9     37.50%     50.00% # Bytes accessed per row activation (Byte)
system.mem_ctrls1.dram.bytesPerActivate::256-383            3     12.50%     62.50% # Bytes accessed per row activation (Byte)
system.mem_ctrls1.dram.bytesPerActivate::384-511            1      4.17%     66.67% # Bytes accessed per row activation (Byte)
system.mem_ctrls1.dram.bytesPerActivate::512-639            2      8.33%     75.00% # Bytes accessed per row activation (Byte)
system.mem_ctrls1.dram.bytesPerActivate::640-767            1      4.17%     79.17% # Bytes accessed per row activation (Byte)
system.mem_ctrls1.dram.bytesPerActivate::768-895            2      8.33%     87.50% # Bytes accessed per row activation (Byte)
system.mem_ctrls1.dram.bytesPerActivate::896-1023            1      4.17%     91.67% # Bytes accessed per row activation (Byte)
system.mem_ctrls1.dram.bytesPerActivate::1024-1151            2      8.33%    100.00% # Bytes accessed per row activation (Byte)
system.mem_ctrls1.dram.bytesPerActivate::total           24                       # Bytes accessed per row activation (Byte)
system.mem_ctrls1.dram.bytesRead                11264                       # Total bytes read (Byte)
system.mem_ctrls1.dram.bytesWritten                 0                       # Total bytes written (Byte)
system.mem_ctrls1.dram.avgRdBW             361.045892                       # Average DRAM read bandwidth in MiBytes/s ((Byte/Second))
system.mem_ctrls1.dram.avgWrBW                      0                       # Average DRAM write bandwidth in MiBytes/s ((Byte/Second))
system.mem_ctrls1.dram.peakBW                12800.00                       # Theoretical peak bandwidth in MiByte/s ((Byte/Second))
system.mem_ctrls1.dram.busUtil                   2.82                       # Data bus utilization in percentage (Ratio)
system.mem_ctrls1.dram.busUtilRead               2.82                       # Data bus utilization in percentage for reads (Ratio)
system.mem_ctrls1.dram.busUtilWrite              0.00                       # Data bus utilization in percentage for writes (Ratio)
system.mem_ctrls1.dram.pageHitRate              82.39                       # Row buffer hit rate, read and write combined (Ratio)
system.mem_ctrls1.dram.power_state.pwrStateResidencyTicks::UNDEFINED     31198250                       # Cumulative time (in ticks) in various power states (Tick)
system.mem_ctrls1.dram.rank0.actEnergy         121380                       # Energy for activate commands per rank (pJ) (Joule)
system.mem_ctrls1.dram.rank0.preEnergy          45540                       # Energy for precharge commands per rank (pJ) (Joule)
system.mem_ctrls1.dram.rank0.readEnergy        642600                       # Energy for read commands per rank (pJ) (Joule)
system.mem_ctrls1.dram.rank0.writeEnergy            0                       # Energy for write commands per rank (pJ) (Joule)
system.mem_ctrls1.dram.rank0.refreshEnergy 2458560.000000                       # Energy for refresh commands per rank (pJ) (Joule)
system.mem_ctrls1.dram.rank0.actBackEnergy      8398380                       # Energy for active background per rank (pJ) (Joule)
system.mem_ctrls1.dram.rank0.preBackEnergy      4907520                       # Energy for precharge background per rank (pJ) (Joule)
system.mem_ctrls1.dram.rank0.actPowerDownEnergy            0                       # Energy for active power-down per rank (pJ) (Joule)
system.mem_ctrls1.dram.rank0.prePowerDownEnergy            0                       # Energy for precharge power-down per rank (pJ) (Joule)
system.mem_ctrls1.dram.rank0.selfRefreshEnergy            0                       # Energy for self refresh per rank (pJ) (Joule)
system.mem_ctrls1.dram.rank0.totalEnergy     16573980                       # Total energy per rank (pJ) (Joule)
system.mem_ctrls1.dram.rank0.averagePower   531.247105                       # Core power per rank (mW) (Watt)
system.mem_ctrls1.dram.rank0.totalIdleTime            0                       # Total Idle time Per DRAM Rank (Tick)
system.mem_ctrls1.dram.rank0.pwrStateTime::IDLE     12697000                       # Time in different power states (Tick)
system.mem_ctrls1.dram.rank0.pwrStateTime::REF      1040000                       # Time in different power states (Tick)
system.mem_ctrls1.dram.rank0.pwrStateTime::SREF            0                       # Time in different power states (Tick)
system.mem_ctrls1.dram.rank0.pwrStateTime::PRE_PDN            0                       # Time in different power states (Tick)
system.mem_ctrls1.dram.rank0.pwrStateTime::ACT     17461250                       # Time in different power states (Tick)
system.mem_ctrls1.dram.rank0.pwrStateTime::ACT_PDN            0                       # Time in different power states (Tick)
system.mem_ctrls1.dram.rank1.actEnergy          99960                       # Energy for activate commands per rank (pJ) (Joule)
system.mem_ctrls1.dram.rank1.preEnergy          45540                       # Energy for precharge commands per rank (pJ) (Joule)
system.mem_ctrls1.dram.rank1.readEnergy        614040                       # Energy for read commands per rank (pJ) (Joule)
system.mem_ctrls1.dram.rank1.writeEnergy            0                       # Energy for write commands per rank (pJ) (Joule)
system.mem_ctrls1.dram.rank1.refreshEnergy 2458560.000000                       # Energy for refresh commands per rank (pJ) (Joule)
system.mem_ctrls1.dram.rank1.actBackEnergy      8411490                       # Energy for active background per rank (pJ) (Joule)
system.mem_ctrls1.dram.rank1.preBackEnergy      4896480                       # Energy for precharge background per rank (pJ) (Joule)
system.mem_ctrls1.dram.rank1.actPowerDownEnergy            0                       # Energy for active power-down per rank (pJ) (Joule)
system.mem_ctrls1.dram.rank1.prePowerDownEnergy            0                       # Energy for precharge power-down per rank (pJ) (Joule)
system.mem_ctrls1.dram.rank1.selfRefreshEnergy            0                       # Energy for self refresh per rank (pJ) (Joule)
system.mem_ctrls1.dram.rank1.totalEnergy     16526070                       # Total energy per rank (pJ) (Joule)
system.mem_ctrls1.dram.rank1.averagePower   529.711442                       # Core power per rank (mW) (Watt)
system.mem_ctrls1.dram.rank1.totalIdleTime            0                       # Total Idle time Per DRAM Rank (Tick)
system.mem_ctrls1.dram.rank1.pwrStateTime::IDLE     12667750                       # Time in different power states (Tick)
system.mem_ctrls1.dram.rank1.pwrStateTime::REF      1040000                       # Time in different power states (Tick)
system.mem_ctrls1.dram.rank1.pwrStateTime::SREF            0                       # Time in different power states (Tick)
system.mem_ctrls1.dram.rank1.pwrStateTime::PRE_PDN            0                       # Time in different power states (Tick)
system.mem_ctrls1.dram.rank1.pwrStateTime::ACT     17490500                       # Time in different power states (Tick)
system.mem_ctrls1.dram.rank1.pwrStateTime::ACT_PDN            0                       # Time in different power states (Tick)
system.mem_ctrls1.power_state.pwrStateResidencyTicks::UNDEFINED     31198250                       # Cumulative time (in ticks) in various power states (Tick)
system.membus.transDist::ReadResp                 319                       # Transaction distribution (Count)
system.membus.transDist::ReadExReq                 30                       # Transaction distribution (Count)
system.membus.transDist::ReadExResp                30                       # Transaction distribution (Count)
system.membus.transDist::ReadSharedReq            319                       # Transaction distribution (Count)
system.membus.pktCount_system.cpu_cluster.l2.mem_side_port::system.mem_ctrls0.port          346                       # Packet count per connected requestor and responder (Count)
system.membus.pktCount_system.cpu_cluster.l2.mem_side_port::system.mem_ctrls1.port          352                       # Packet count per connected requestor and responder (Count)
system.membus.pktCount_system.cpu_cluster.l2.mem_side_port::total          698                       # Packet count per connected requestor and responder (Count)
system.membus.pktCount::total                     698                       # Packet count per connected requestor and responder (Count)
system.membus.pktSize_system.cpu_cluster.l2.mem_side_port::system.mem_ctrls0.port        11072                       # Cumulative packet size per connected requestor and responder (Byte)
system.membus.pktSize_system.cpu_cluster.l2.mem_side_port::system.mem_ctrls1.port        11264                       # Cumulative packet size per connected requestor and responder (Byte)
system.membus.pktSize_system.cpu_cluster.l2.mem_side_port::total        22336                       # Cumulative packet size per connected requestor and responder (Byte)
system.membus.pktSize::total                    22336                       # Cumulative packet size per connected requestor and responder (Byte)
system.membus.snoops                                0                       # Total snoops (Count)
system.membus.snoopTraffic                          0                       # Total snoop traffic (Byte)
system.membus.snoopFanout::samples                349                       # Request fanout histogram (Count)
system.membus.snoopFanout::mean                     0                       # Request fanout histogram (Count)
system.membus.snoopFanout::stdev                    0                       # Request fanout histogram (Count)
system.membus.snoopFanout::underflows               0      0.00%      0.00% # Request fanout histogram (Count)
system.membus.snoopFanout::0                      349    100.00%    100.00% # Request fanout histogram (Count)
system.membus.snoopFanout::1                        0      0.00%    100.00% # Request fanout histogram (Count)
system.membus.snoopFanout::overflows                0      0.00%    100.00% # Request fanout histogram (Count)
system.membus.snoopFanout::min_value                0                       # Request fanout histogram (Count)
system.membus.snoopFanout::max_value                0                       # Request fanout histogram (Count)
system.membus.snoopFanout::total                  349                       # Request fanout histogram (Count)
system.membus.power_state.pwrStateResidencyTicks::UNDEFINED     31198250                       # Cumulative time (in ticks) in various power states (Tick)
system.membus.reqLayer0.occupancy              205251                       # Layer occupancy (ticks) (Tick)
system.membus.reqLayer0.utilization               0.0                       # Layer utilization (Ratio)
system.membus.reqLayer1.occupancy              210002                       # Layer occupancy (ticks) (Tick)
system.membus.reqLayer1.utilization               0.0                       # Layer utilization (Ratio)
system.membus.respLayer1.occupancy            1843500                       # Layer occupancy (ticks) (Tick)
system.membus.respLayer1.utilization              0.1                       # Layer utilization (Ratio)
system.membus.snoop_filter.totRequests            349                       # Total number of requests made to the snoop filter. (Count)
system.membus.snoop_filter.hitSingleRequests            0                       # Number of requests hitting in the snoop filter with a single holder of the requested data. (Count)
system.membus.snoop_filter.hitMultiRequests            0                       # Number of requests hitting in the snoop filter with multiple (>1) holders of the requested data. (Count)
system.membus.snoop_filter.totSnoops                0                       # Total number of snoops made to the snoop filter. (Count)
system.membus.snoop_filter.hitSingleSnoops            0                       # Number of snoops hitting in the snoop filter with a single holder of the requested data. (Count)
system.membus.snoop_filter.hitMultiSnoops            0                       # Number of snoops hitting in the snoop filter with multiple (>1) holders of the requested data. (Count)
system.voltage_domain.voltage                3.300000                       # Voltage in Volts (Volt)
system.workload.inst.arm                            0                       # number of arm instructions executed (Count)
system.workload.inst.quiesce                        0                       # number of quiesce instructions executed (Count)
system.cpu_cluster.cpus.idleCycles              73456                       # Total number of cycles that the object has spent stopped (Unspecified)
system.cpu_cluster.cpus.tickCycles              51337                       # Number of cycles that the object actually ticked (Unspecified)

---------- End Simulation Statistics   ----------
